data_diedge
_audit_creation_date              2025-01-16
_audit_creation_method            'MOFbuilder'
_symmetry_space_group_name_H-M    'P1'
_symmetry_Int_Tables_number       1
_symmetry_cell_setting            triclinic
loop_
_symmetry_equiv_pos_as_xyz
  x,y,z
_cell_length_a                    50
_cell_length_b                    50
_cell_length_c                    50
_cell_angle_alpha                 90
_cell_angle_beta                  90
_cell_angle_gamma                 90
loop_
_atom_site_label
_atom_site_type_symbol
_atom_site_fract_x
_atom_site_fract_y
_atom_site_fract_z
C1         C   -0.0395841495    0.0085786431    0.0292206444   0.00000  Uiso   1.00       -0.000000
C2         C   -0.0367181495   -0.0193713569    0.0278006444   0.00000  Uiso   1.00       -0.000000
C3         C   -0.0155901495   -0.0313833569    0.0134146444   0.00000  Uiso   1.00       -0.000000
C4         C    0.0025578505   -0.0140773569    0.0006046444   0.00000  Uiso   1.00       -0.000000
C5         C    0.0237398505   -0.0259853569   -0.0136373556   0.00000  Uiso   1.00       -0.000000
C6         C    0.0418458505   -0.0085533569   -0.0265093556   0.00000  Uiso   1.00       -0.000000
C7         C    0.0388398505    0.0193846431   -0.0252953556   0.00000  Uiso   1.00       -0.000000
C8         C    0.0175998505    0.0314026431   -0.0110913556   0.00000  Uiso   1.00       -0.000000
C9         C   -0.0004101495    0.0140926431    0.0019206444   0.00000  Uiso   1.00       -0.000000
C10        C   -0.0215361495    0.0259946431    0.0162386444   0.00000  Uiso   1.00       -0.000000
C11        C   -0.0244881495    0.0559706431    0.0177226444   0.00000  Uiso   1.00       -0.000000
O12        O   -0.0421761495    0.0653006431    0.0322586444   0.00000  Uiso   1.00       -0.000000
N13        N   -0.0071681495    0.0715486431    0.0036046444   0.00000  Uiso   1.00       -0.000000
C14        C    0.0140698505    0.0613566431   -0.0101393556   0.00000  Uiso   1.00       -0.000000
O15        O    0.0305098505    0.0753826431   -0.0220533556   0.00000  Uiso   1.00       -0.000000
C16        C   -0.0111561495    0.0999846431    0.0032346444   0.00000  Uiso   1.00       -0.000000
C17        C   -0.0083561495    0.1155466431    0.0267346444   0.00000  Uiso   1.00       -0.000000
C18        C   -0.0109761495    0.1435386431    0.0257186444   0.00000  Uiso   1.00       -0.000000
X19        C    0.0200398505   -0.1562233569   -0.0076233556   0.00000  Uiso   1.00       -0.000000
C20        C   -0.0202701495    0.1410086431   -0.0219913556   0.00000  Uiso   1.00       -0.000000
C21        C   -0.0173081495    0.1130326431   -0.0211153556   0.00000  Uiso   1.00       -0.000000
C22        C    0.0269258505   -0.0559673569   -0.0149133556   0.00000  Uiso   1.00       -0.000000
O23        O    0.0460978505   -0.0650833569   -0.0274973556   0.00000  Uiso   1.00       -0.000000
N24        N    0.0086598505   -0.0715793569   -0.0020153556   0.00000  Uiso   1.00       -0.000000
C25        C   -0.0127321495   -0.0613373569    0.0113766444   0.00000  Uiso   1.00       -0.000000
O26        O   -0.0303701495   -0.0754893569    0.0213666444   0.00000  Uiso   1.00       -0.000000
C27        C    0.0119098505   -0.1000833569   -0.0032873556   0.00000  Uiso   1.00       -0.000000
C28        C    0.0343638505   -0.1123493569    0.0087986444   0.00000  Uiso   1.00       -0.000000
C29        C    0.0383398505   -0.1401373569    0.0066386444   0.00000  Uiso   1.00       -0.000000
C30        C   -0.0024201495   -0.1439973569   -0.0196833556   0.00000  Uiso   1.00       -0.000000
C31        C   -0.0066461495   -0.1162953569   -0.0172553556   0.00000  Uiso   1.00       -0.000000
H32        H   -0.0194081495    0.1017466431   -0.0394293556   0.00000  Uiso   1.00       -0.000000
H33        H    0.0489778505   -0.1005053569    0.0194426444   0.00000  Uiso   1.00       -0.000000
X34        C   -0.0171441495    0.1565306431    0.0013746444   0.00000  Uiso   1.00       -0.000000
H35        H   -0.0247741495    0.1506446431   -0.0408373556   0.00000  Uiso   1.00       -0.000000
H36        H    0.0557518505   -0.1491333569    0.0158106444   0.00000  Uiso   1.00       -0.000000
H37        H   -0.0166961495   -0.1554473569   -0.0311373556   0.00000  Uiso   1.00       -0.000000
O38        O   -0.0291801495   -0.1056253569   -0.0282573556   0.00000  Uiso   1.00       -0.000000
H39        H   -0.0393921495   -0.0964633569   -0.0151153556   0.00000  Uiso   1.00       -0.000000
H40        H    0.0584598505   -0.0167833569   -0.0376793556   0.00000  Uiso   1.00       -0.000000
H41        H    0.0531938505    0.0318806431   -0.0356073556   0.00000  Uiso   1.00       -0.000000
H42        H   -0.0561161495    0.0168086431    0.0405046444   0.00000  Uiso   1.00       -0.000000
H43        H   -0.0511641495   -0.0318673569    0.0379786444   0.00000  Uiso   1.00       -0.000000
O44        O   -0.0035921495    0.1038506431    0.0508826444   0.00000  Uiso   1.00       -0.000000
H45        H   -0.0167681495    0.0906966431    0.0546806444   0.00000  Uiso   1.00       -0.000000
H46        H   -0.0079801495    0.1546666431    0.0439766444   0.00000  Uiso   1.00       -0.000000
loop_
_geom_bond_atom_site_label_1
_geom_bond_atom_site_label_2
_geom_bond_distance
_geom_bond_site_symmetry_2
_ccdc_geom_bond_type
C1           C2 0.028       .   S
C1          C10 0.028       .   S
C1          H42 0.022       .   S
C2           C3 0.028       .   S
C2          H43 0.022       .   S
C3           C4 0.028       .   S
C3          C25 0.030       .   S
C4           C5 0.028       .   S
C4           C9 0.028       .   S
C5           C6 0.028       .   S
C5          C22 0.030       .   S
C6           C7 0.028       .   S
C6          H40 0.022       .   S
C7           C8 0.028       .   S
C7          H41 0.022       .   S
C8           C9 0.028       .   S
C8          C14 0.030       .   S
C9          C10 0.028       .   S
C10         C11 0.030       .   S
C11         O12 0.025       .   S
C11         N13 0.027       .   S
N13         C14 0.027       .   S
N13         C16 0.029       .   S
C14         O15 0.025       .   S
C16         C17 0.028       .   S
C16         C21 0.028       .   S
C17         C18 0.028       .   S
C17         O44 0.027       .   S
C18         X34 0.028       .   A
C18         H46 0.022       .   S
X19         C29 0.028       .   A
X19         C30 0.028       .   A
C20         C21 0.028       .   S
C20         X34 0.028       .   A
C20         H35 0.022       .   S
C21         H32 0.022       .   S
C22         O23 0.025       .   S
C22         N24 0.027       .   S
N24         C25 0.027       .   S
N24         C27 0.029       .   S
C25         O26 0.025       .   S
C27         C28 0.028       .   S
C27         C31 0.028       .   S
C28         C29 0.028       .   S
C28         H33 0.022       .   S
C29         H36 0.022       .   S
C30         C31 0.028       .   S
C30         H37 0.022       .   S
C31         O38 0.027       .   S
O38         H39 0.019       .   S
O44         H45 0.019       .   S
