data_triedge
_audit_creation_date              2025-01-27
_audit_creation_method            'MOFbuilder'
_symmetry_space_group_name_H-M    'P1'
_symmetry_Int_Tables_number       1
_symmetry_cell_setting            triclinic
loop_
_symmetry_equiv_pos_as_xyz
  x,y,z
_cell_length_a                    50
_cell_length_b                    50
_cell_length_c                    50
_cell_angle_alpha                 90
_cell_angle_beta                  90
_cell_angle_gamma                 90
loop_
_atom_site_label
_atom_site_type_symbol
_atom_site_fract_x
_atom_site_fract_y
_atom_site_fract_z
H1         H   -0.0371511766   -0.0022874107   -0.0639756158   0.00000  Uiso   1.00       -0.000000
H2         H   -0.0372691766   -0.0202194107   -0.1100456158   0.00000  Uiso   1.00       -0.000000
H3         H    0.0371428234   -0.0597694107   -0.0948396158   0.00000  Uiso   1.00       -0.000000
H4         H    0.0372588234   -0.0418354107   -0.0487696158   0.00000  Uiso   1.00       -0.000000
X5         C    0.0000608234   -0.0209454107   -0.0535036158   0.00000  Uiso   1.00       -0.000000
C6         C   -0.0208911766   -0.0148694107   -0.0707316158   0.00000  Uiso   1.00       -0.000000
C7         C   -0.0209571766   -0.0249514107   -0.0966336158   0.00000  Uiso   1.00       -0.000000
X8         C   -0.0000711766   -0.0411114107   -0.1053116158   0.00000  Uiso   1.00       -0.000000
C9         C    0.0208808234   -0.0471874107   -0.0880856158   0.00000  Uiso   1.00       -0.000000
C10        C    0.0209468234   -0.0371054107   -0.0621816158   0.00000  Uiso   1.00       -0.000000
loop_
_geom_bond_atom_site_label_1
_geom_bond_atom_site_label_2
_geom_bond_distance
_geom_bond_site_symmetry_2
_ccdc_geom_bond_type
H1           C6 0.022       .   S
H2           C7 0.022       .   S
H3           C9 0.022       .   S
H4          C10 0.022       .   S
X5           C6 0.028       .   A
X5          C10 0.028       .   A
C6           C7 0.028       .   S
C7           X8 0.028       .   A
X8           C9 0.028       .   A
C9          C10 0.028       .   S
