data_
_audit_creation_date              2024-08-13
_audit_creation_method            'VESTA'
_symmetry_space_group_name_H-M    'P1'
_symmetry_Int_Tables_number       1
_symmetry_cell_setting            triclinic
loop_
_symmetry_equiv_pos_as_xyz
  x,y,z
_cell_length_a                    20.0000
_cell_length_b                    20.0000
_cell_length_c                    20.0000
_cell_angle_alpha                 90.0000
_cell_angle_beta                  90.0000
_cell_angle_gamma                 90.0000
loop_
_atom_site_label
_atom_site_type_symbol
_atom_site_fract_x
_atom_site_fract_y
_atom_site_fract_z
_atom_site_U_iso_or_equiv
_atom_site_adp_type
_atom_site_occupancy
_atom_site_charge
X2         C   -0.064950        0.037500        0.000000       0.00000  Uiso   1.00        0.034261
X3         C   -0.000000       -0.075000        0.000000       0.00000  Uiso   1.00        0.034261
C1         C    0.000000        0.000000        0.000000       0.00000  Uiso   1.00        0.034261
X1         C    0.064950        0.037500        0.000000       0.00000  Uiso   1.00        0.034261