# CIF file generated by openbabel 2.4.90, see http://openbabel.sf.net
data_I
_chemical_name_common ''
_cell_length_a 16.733
_cell_length_b 13.038
_cell_length_c 6.812
_cell_angle_alpha 90
_cell_angle_beta 90
_cell_angle_gamma 90
_space_group_name_H-M_alt 'P 1'
_space_group_name_Hall 'P 1'
loop_
    _symmetry_equiv_pos_as_xyz
    x,y,z
loop_
    _atom_site_label
    _atom_site_type_symbol
    _atom_site_fract_x
    _atom_site_fract_y
    _atom_site_fract_z
    _atom_site_occupancy
    Cr0     Cr   0.75000   0.25000   0.75000   1.000
    Cr1     Cr   0.25000   0.75000   0.25000   1.000
    Cr2     Cr   0.25000   0.75000   0.75000   1.000
    O3      O    0.25000   0.68600   0.00000   1.000
    O4      O    0.83200   0.16100   0.16700   1.000
    C5      C    0.96700   0.03200   0.17900   1.000
    C6      C    0.93400   0.06300   0.00000   1.000
    O7      O    0.16800   0.83900   0.83300   1.000
    C8      C    0.06600   0.93700   0.00000   1.000
    O9      O    0.16800   0.83900   0.16700   1.000
    O10     O    0.33200   0.83900   0.83300   1.000
    C11     C    0.03300   0.96800   0.82100   1.000
    O12     O    0.66800   0.16100   0.83300   1.000
    C13     C    0.86300   0.13200   0.00000   1.000
    H14     H    0.25000   0.61100   0.00000   1.000
    H15     H    0.94000   0.05800   0.32900   1.000
    Cr16    Cr   0.75000   0.25000   0.25000   1.000
    O17     O    0.25000   0.81400   0.50000   1.000
    O18     O    0.83200   0.16100   0.83300   1.000
    O19     O    0.75000   0.31400   0.00000   1.000
    O20     O    0.75000   0.18600   0.50000   1.000
    O21     O    0.66800   0.16100   0.16700   1.000
    O22     O    0.33200   0.83900   0.16700   1.000
    O23     O    0.33200   0.66100   0.66700   1.000
    O24     O    0.66800   0.33900   0.66700   1.000
    O25     O    0.83200   0.33900   0.33300   1.000
    O26     O    0.16800   0.66100   0.33300   1.000
    O27     O    0.66800   0.33900   0.33300   1.000
    O28     O    0.33200   0.66100   0.33300   1.000
    O29     O    0.16800   0.66100   0.66700   1.000
    O30     O    0.83200   0.33900   0.66700   1.000
    C31     C    0.03300   0.96800   0.17900   1.000
    C32     C    0.46700   0.96800   0.82100   1.000
    C33     C    0.53300   0.03200   0.82100   1.000
    H34     H    0.06000   0.94200   0.67100   1.000
    C35     C    0.96700   0.03200   0.82100   1.000
    C36     C    0.53300   0.03200   0.17900   1.000
    C37     C    0.46700   0.96800   0.17900   1.000
    C38     C    0.46700   0.53200   0.67900   1.000
    C39     C    0.53300   0.46800   0.67900   1.000
    C40     C    0.96700   0.46800   0.32100   1.000
    C41     C    0.03300   0.53200   0.32100   1.000
    C42     C    0.53300   0.46800   0.32100   1.000
    C43     C    0.46700   0.53200   0.32100   1.000
    C44     C    0.03300   0.53200   0.67900   1.000
    C45     C    0.96700   0.46800   0.67900   1.000
    C46     C    0.43400   0.93700   0.00000   1.000
    C47     C    0.56600   0.06300   0.00000   1.000
    C48     C    0.43400   0.56300   0.50000   1.000
    C49     C    0.56600   0.43700   0.50000   1.000
    C50     C    0.93400   0.43700   0.50000   1.000
    C51     C    0.06600   0.56300   0.50000   1.000
    C52     C    0.13700   0.86800   0.00000   1.000
    C53     C    0.36300   0.86800   0.00000   1.000
    C54     C    0.63700   0.13200   0.00000   1.000
    C55     C    0.36300   0.63200   0.50000   1.000
    C56     C    0.63700   0.36800   0.50000   1.000
    C57     C    0.86300   0.36800   0.50000   1.000
    C58     C    0.13700   0.63200   0.50000   1.000
    H59     H    0.75000   0.38900   0.00000   1.000
    H60     H    0.75000   0.11100   0.50000   1.000
    H61     H    0.25000   0.88900   0.50000   1.000
    H62     H    0.06000   0.94200   0.32900   1.000
    H63     H    0.44000   0.94200   0.67100   1.000
    H64     H    0.56000   0.05800   0.67100   1.000
    H65     H    0.94000   0.05800   0.67100   1.000
    H66     H    0.56000   0.05800   0.32900   1.000
    H67     H    0.44000   0.94200   0.32900   1.000
    H68     H    0.44000   0.55800   0.82900   1.000
    H69     H    0.56000   0.44200   0.82900   1.000
    H70     H    0.94000   0.44200   0.17100   1.000
    H71     H    0.06000   0.55800   0.17100   1.000
    H72     H    0.56000   0.44200   0.17100   1.000
    H73     H    0.44000   0.55800   0.17100   1.000
    H74     H    0.06000   0.55800   0.82900   1.000
    H75     H    0.94000   0.44200   0.82900   1.000
loop_
    _geom_bond_atom_site_label_1
    _geom_bond_atom_site_label_2
    _geom_bond_distance
    _geom_bond_site_symmetry_2
    _ccdc_geom_bond_type
    H59    O19       0.97785      .   S
    O3     H14       0.97785      .   S
    O3     Cr2       1.89644  1_554   S
    C47    C54       1.49022      .   S
    C47    C36       1.39824      .   S
    C47    C33       1.39824  1_554   S
    C8     C52       1.49022      .   S
    C8     C31       1.39824      .   S
    C8     C11       1.39824  1_554   S
    C6     C13       1.49022      .   S
    C6     C5        1.39824      .   S
    C6     C35       1.39824  1_554   S
    C13    O4        1.30621      .   S
    C13    O18       1.30621  1_554   S
    C52    O9        1.30621      .   S
    C52    O7        1.30621  1_554   S
    C46    C53       1.49022      .   S
    C46    C37       1.39824      .   S
    C46    C32       1.39824  1_554   S
    C53    O22       1.30621      .   S
    C53    O10       1.30621  1_554   S
    C54    O21       1.30621      .   S
    C54    O12       1.30621  1_554   S
    O19    Cr0       1.89644  1_554   S
    O21    Cr16      1.88383      .   S
    O22    Cr1       1.88383      .   S
    O9     Cr1       1.88383      .   S
    O4     Cr16      1.88383      .   S
    H72    C42       1.16752      .   S
    H73    C43       1.16752      .   S
    H70    C40       1.16752      .   S
    H71    C41       1.16752      .   S
    C31    C5        1.38417  1_465   S
    C31    H62       1.16752      .   S
    C5     H15       1.16752      .   S
    C37    C36       1.38417  1_565   S
    C37    H67       1.16752      .   S
    C36    H66       1.16752      .   S
    Cr1    O26       1.88383      .   S
    Cr1    O28       1.88383      .   S
    Cr16   O25       1.88383      .   S
    Cr16   O27       1.88383      .   S
    Cr16   O20       1.89644      .   S
    C40    C41       1.38417  1_655   S
    C40    C50       1.39824      .   S
    C43    C42       1.38417      .   S
    C43    C48       1.39824      .   S
    C41    C51       1.39824      .   S
    C42    C49       1.39824      .   S
    O26    C58       1.30621      .   S
    O25    C57       1.30621      .   S
    O27    C56       1.30621      .   S
    O28    C55       1.30621      .   S
    C48    C55       1.49022      .   S
    C48    C38       1.39824      .   S
    O20    H60       0.97785      .   S
    H61    O17       0.97785      .   S
    O17    Cr2       1.89644      .   S
    C58    C51       1.49022      .   S
    C58    O29       1.30621      .   S
    C57    C50       1.49022      .   S
    C57    O30       1.30621      .   S
    C56    C49       1.49022      .   S
    C56    O24       1.30621      .   S
    C55    O23       1.30621      .   S
    C51    C44       1.39824      .   S
    C49    C39       1.39824      .   S
    C50    C45       1.39824      .   S
    O29    Cr2       1.88383      .   S
    O24    Cr0       1.88383      .   S
    O30    Cr0       1.88383      .   S
    O23    Cr2       1.88383      .   S
    H65    C35       1.16752      .   S
    H64    C33       1.16752      .   S
    H63    C32       1.16752      .   S
    H34    C11       1.16752      .   S
    C44    C45       1.38417  1_455   S
    C44    H74       1.16752      .   S
    C45    H75       1.16752      .   S
    C39    C38       1.38417      .   S
    C39    H69       1.16752      .   S
    C38    H68       1.16752      .   S
    Cr0    O12       1.88383      .   S
    Cr0    O18       1.88383      .   S
    Cr2    O10       1.88383      .   S
    Cr2    O7        1.88383      .   S
    C35    C11       1.38417  1_645   S
    C32    C33       1.38417  1_565   S
    O3     Cr1       1.89644      .   S
    O19    Cr16      1.89644      .   S
    O20    Cr0       1.89644      .   S
    O17    Cr1       1.89644      .   S
