# CIF file generated by openbabel 2.4.90, see http://openbabel.sf.net
data_I
_chemical_name_common ''
_cell_length_a 16.733
_cell_length_b 13.038
_cell_length_c 6.812
_cell_angle_alpha 90
_cell_angle_beta 90
_cell_angle_gamma 90
_space_group_name_H-M_alt 'P 1'
_space_group_name_Hall 'P 1'
loop_
    _symmetry_equiv_pos_as_xyz
    x,y,z
loop_
    _atom_site_label
    _atom_site_type_symbol
    _atom_site_fract_x
    _atom_site_fract_y
    _atom_site_fract_z
    _atom_site_occupancy
    Cr0     Cr   0.75000   0.25000   0.75000   1.000
    Cr1     Cr   0.25000   0.75000   0.25000   1.000
    Cr2     Cr   0.25000   0.75000   0.75000   1.000
    O3      O    0.25000   0.68600   0.00000   1.000
    O4      O    0.83200   0.16100   0.16700   1.000
    O5      O    0.16800   0.83900   0.83300   1.000
    O6      O    0.16800   0.83900   0.16700   1.000
    O7      O    0.33200   0.83900   0.83300   1.000
    O8      O    0.66800   0.16100   0.83300   1.000
    C9      C    0.86300   0.13200   0.00000   1.000
    H10     H    0.25000   0.61100   0.00000   1.000
    Cr11    Cr   0.75000   0.25000   0.25000   1.000
    O12     O    0.25000   0.81400   0.50000   1.000
    O13     O    0.83200   0.16100   0.83300   1.000
    O14     O    0.75000   0.31400   0.00000   1.000
    O15     O    0.75000   0.18600   0.50000   1.000
    O16     O    0.66800   0.16100   0.16700   1.000
    O17     O    0.33200   0.83900   0.16700   1.000
    O18     O    0.33200   0.66100   0.66700   1.000
    O19     O    0.66800   0.33900   0.66700   1.000
    O20     O    0.83200   0.33900   0.33300   1.000
    O21     O    0.16800   0.66100   0.33300   1.000
    O22     O    0.66800   0.33900   0.33300   1.000
    O23     O    0.33200   0.66100   0.33300   1.000
    O24     O    0.16800   0.66100   0.66700   1.000
    O25     O    0.83200   0.33900   0.66700   1.000
    C26     C    0.13700   0.86800   0.00000   1.000
    C27     C    0.36300   0.86800   0.00000   1.000
    C28     C    0.63700   0.13200   0.00000   1.000
    C29     C    0.36300   0.63200   0.50000   1.000
    C30     C    0.63700   0.36800   0.50000   1.000
    C31     C    0.86300   0.36800   0.50000   1.000
    C32     C    0.13700   0.63200   0.50000   1.000
    H33     H    0.75000   0.38900   0.00000   1.000
    H34     H    0.75000   0.11100   0.50000   1.000
    H35     H    0.25000   0.88900   0.50000   1.000
    Og36    Og   0.88667   0.10900   0.00000   1.000
    Og37    Og   0.11333   0.89100   0.00000   1.000
    Og38    Og   0.38667   0.89100   0.00000   1.000
    Og39    Og   0.61333   0.10900   0.00000   1.000
    Og40    Og   0.38667   0.60900   0.50000   1.000
    Og41    Og   0.61333   0.39100   0.50000   1.000
    Og42    Og   0.88667   0.39100   0.50000   1.000
    Og43    Og   0.11333   0.60900   0.50000   1.000
loop_
    _geom_bond_atom_site_label_1
    _geom_bond_atom_site_label_2
    _geom_bond_distance
    _geom_bond_site_symmetry_2
    _ccdc_geom_bond_type
    H33    O14       0.97785      .   S
    O3     H10       0.97785      .   S
    O3     Cr2       1.89644  1_554   S
    C9     O4        1.30621      .   S
    C9     O13       1.30621  1_554   S
    C26    O6        1.30621      .   S
    C26    O5        1.30621  1_554   S
    C27    O17       1.30621      .   S
    C27    O7        1.30621  1_554   S
    C28    O16       1.30621      .   S
    C28    O8        1.30621  1_554   S
    O14    Cr0       1.89644  1_554   S
    O16    Cr11      1.88383      .   S
    O17    Cr1       1.88383      .   S
    O6     Cr1       1.88383      .   S
    O4     Cr11      1.88383      .   S
    Cr1    O21       1.88383      .   S
    Cr1    O23       1.88383      .   S
    Cr11   O20       1.88383      .   S
    Cr11   O22       1.88383      .   S
    Cr11   O15       1.89644      .   S
    O21    C32       1.30621      .   S
    O20    C31       1.30621      .   S
    O22    C30       1.30621      .   S
    O23    C29       1.30621      .   S
    O15    H34       0.97785      .   S
    H35    O12       0.97785      .   S
    O12    Cr2       1.89644      .   S
    C32    O24       1.30621      .   S
    C31    O25       1.30621      .   S
    C30    O19       1.30621      .   S
    C29    O18       1.30621      .   S
    O24    Cr2       1.88383      .   S
    O19    Cr0       1.88383      .   S
    O25    Cr0       1.88383      .   S
    O18    Cr2       1.88383      .   S
    Cr0    O8        1.88383      .   S
    Cr0    O13       1.88383      .   S
    Cr2    O7        1.88383      .   S
    Cr2    O5        1.88383      .   S
    O3     Cr1       1.89644      .   S
    O14    Cr11      1.89644      .   S
    O15    Cr0       1.89644      .   S
    O12    Cr1       1.89644      .   S
    C9     Og36      0.49674      .   S
    C26    Og37      0.49674      .   S
    C27    Og38      0.49674      .   S
    C28    Og39      0.49674      .   S
    C29    Og40      0.49674      .   S
    C30    Og41      0.49674      .   S
    C31    Og42      0.49674      .   S
    C32    Og43      0.49674      .   S
