data_diedge
_audit_creation_date              2024-11-25
_audit_creation_method            'MOFbuilder'
_symmetry_space_group_name_H-M    'P1'
_symmetry_Int_Tables_number       1
_symmetry_cell_setting            triclinic
loop_
_symmetry_equiv_pos_as_xyz
  x,y,z
_cell_length_a                    50
_cell_length_b                    50
_cell_length_c                    50
_cell_angle_alpha                 90
_cell_angle_beta                  90
_cell_angle_gamma                 90
loop_
_atom_site_label
_atom_site_type_symbol
_atom_site_fract_x
_atom_site_fract_y
_atom_site_fract_z
C1         C    0.9604152643    0.0085787723    0.0292287625   0.00000  Uiso   1.00       -0.000000
C2         C    0.9632752643    0.9806187723    0.0278087625   0.00000  Uiso   1.00       -0.000000
C3         C    0.9844152643    0.9686187723    0.0134087625   0.00000  Uiso   1.00       -0.000000
C4         C    0.0025552643    0.9859187723    0.0006087625   0.00000  Uiso   1.00       -0.000000
C5         C    0.0237352643    0.9740187723    0.9863687625   0.00000  Uiso   1.00       -0.000000
C6         C    0.0418552643    0.9914387723    0.9734887625   0.00000  Uiso   1.00       -0.000000
C7         C    0.0388352643    0.0193787723    0.9747087625   0.00000  Uiso   1.00       -0.000000
C8         C    0.0175952643    0.0313987723    0.9889087625   0.00000  Uiso   1.00       -0.000000
C9         C    0.9995952643    0.0140987723    0.0019087625   0.00000  Uiso   1.00       -0.000000
C10        C    0.9784552643    0.0259987723    0.0162287625   0.00000  Uiso   1.00       -0.000000
C11        C    0.9755152643    0.0559787723    0.0177287625   0.00000  Uiso   1.00       -0.000000
O12        O    0.9578152643    0.0652987723    0.0322487625   0.00000  Uiso   1.00       -0.000000
N13        N    0.9928352643    0.0715587723    0.0036087625   0.00000  Uiso   1.00       -0.000000
C14        C    0.0140752643    0.0613587723    0.9898687625   0.00000  Uiso   1.00       -0.000000
O15        O    0.0305152643    0.0753787723    0.9779487625   0.00000  Uiso   1.00       -0.000000
C16        C    0.9888352643    0.0999787723    0.0032287625   0.00000  Uiso   1.00       -0.000000
C17        C    0.9916352643    0.1155387723    0.0267287625   0.00000  Uiso   1.00       -0.000000
C18        C    0.9890152643    0.1435387723    0.0257087625   0.00000  Uiso   1.00       -0.000000
X19        C    0.0200352643    0.8437787723    0.9923687625   0.00000  Uiso   1.00       -0.000000
C20        C    0.9797352643    0.1409987723    0.9780087625   0.00000  Uiso   1.00       -0.000000
C21        C    0.9826952643    0.1130387723    0.9788887625   0.00000  Uiso   1.00       -0.000000
C22        C    0.0269152643    0.9440387723    0.9850887625   0.00000  Uiso   1.00       -0.000000
O23        O    0.0460952643    0.9349187723    0.9725087625   0.00000  Uiso   1.00       -0.000000
N24        N    0.0086552643    0.9284187723    0.9979887625   0.00000  Uiso   1.00       -0.000000
C25        C    0.9872752643    0.9386587723    0.0113687625   0.00000  Uiso   1.00       -0.000000
O26        O    0.9696352643    0.9245187723    0.0213687625   0.00000  Uiso   1.00       -0.000000
C27        C    0.0119152643    0.8999187723    0.9967087625   0.00000  Uiso   1.00       -0.000000
C28        C    0.0343552643    0.8876587723    0.0087887625   0.00000  Uiso   1.00       -0.000000
C29        C    0.0383352643    0.8598587723    0.0066287625   0.00000  Uiso   1.00       -0.000000
C30        C    0.9975752643    0.8559987723    0.9803087625   0.00000  Uiso   1.00       -0.000000
C31        C    0.9933552643    0.8836987723    0.9827487625   0.00000  Uiso   1.00       -0.000000
H32        H    0.9805952643    0.1017387723    0.9605687625   0.00000  Uiso   1.00       -0.000000
H33        H    0.0489752643    0.8994987723    0.0194487625   0.00000  Uiso   1.00       -0.000000
X34        C    0.9828552643    0.1565387723    0.0013687625   0.00000  Uiso   1.00       -0.000000
H35        H    0.9752152643    0.1506387723    0.9591687625   0.00000  Uiso   1.00       -0.000000
H36        H    0.0557552643    0.8508587723    0.0158087625   0.00000  Uiso   1.00       -0.000000
H37        H    0.9832952643    0.8445587723    0.9688687625   0.00000  Uiso   1.00       -0.000000
O38        O    0.9708152643    0.8943787723    0.9717487625   0.00000  Uiso   1.00       -0.000000
H39        H    0.9606152643    0.9035387723    0.9848887625   0.00000  Uiso   1.00       -0.000000
H40        H    0.0584552643    0.9832187723    0.9623287625   0.00000  Uiso   1.00       -0.000000
H41        H    0.0531952643    0.0318787723    0.9643887625   0.00000  Uiso   1.00       -0.000000
H42        H    0.9438752643    0.0168187723    0.0405087625   0.00000  Uiso   1.00       -0.000000
H43        H    0.9488352643    0.9681387723    0.0379687625   0.00000  Uiso   1.00       -0.000000
O44        O    0.9964152643    0.1038587723    0.0508887625   0.00000  Uiso   1.00       -0.000000
H45        H    0.9832352643    0.0906987723    0.0546887625   0.00000  Uiso   1.00       -0.000000
H46        H    0.9920152643    0.1546587723    0.0439687625   0.00000  Uiso   1.00       -0.000000
loop_
_geom_bond_atom_site_label_1
_geom_bond_atom_site_label_2
_geom_bond_distance
_geom_bond_site_symmetry_2
_ccdc_geom_bond_type
C1           C2 0.028       .   S
C1          C10 0.028       .   S
C1          H42 0.022       .   S
C2           C3 0.028       .   S
C2          H43 0.022       .   S
C3           C4 0.028       .   S
C3          C25 0.030       .   S
C4           C5 0.028       .   S
C4           C9 0.028       .   S
C5           C6 0.028       .   S
C5          C22 0.030       .   S
C6           C7 0.028       .   S
C6          H40 0.022       .   S
C7           C8 0.028       .   S
C7          H41 0.022       .   S
C8           C9 0.028       .   S
C8          C14 0.030       .   S
C9          C10 0.028       .   S
C10         C11 0.030       .   S
C11         O12 0.025       .   S
C11         N13 0.027       .   S
N13         C14 0.027       .   S
N13         C16 0.029       .   S
C14         O15 0.025       .   S
C16         C17 0.028       .   S
C16         C21 0.028       .   S
C17         C18 0.028       .   S
C17         O44 0.027       .   S
C18         X34 0.028       .   A
C18         H46 0.022       .   S
X19         C29 0.028       .   A
X19         C30 0.028       .   A
C20         C21 0.028       .   S
C20         X34 0.028       .   A
C20         H35 0.022       .   S
C21         H32 0.022       .   S
C22         O23 0.025       .   S
C22         N24 0.027       .   S
N24         C25 0.027       .   S
N24         C27 0.029       .   S
C25         O26 0.025       .   S
C27         C28 0.028       .   S
C27         C31 0.028       .   S
C28         C29 0.028       .   S
C28         H33 0.022       .   S
C29         H36 0.022       .   S
C30         C31 0.028       .   S
C30         H37 0.022       .   S
C31         O38 0.027       .   S
O38         H39 0.019       .   S
O44         H45 0.019       .   S
