data_triedge
_audit_creation_date              2024-12-10
_audit_creation_method            'MOFbuilder'
_symmetry_space_group_name_H-M    'P1'
_symmetry_Int_Tables_number       1
_symmetry_cell_setting            triclinic
loop_
_symmetry_equiv_pos_as_xyz
  x,y,z
_cell_length_a                    50
_cell_length_b                    50
_cell_length_c                    50
_cell_angle_alpha                 90
_cell_angle_beta                  90
_cell_angle_gamma                 90
loop_
_atom_site_label
_atom_site_type_symbol
_atom_site_fract_x
_atom_site_fract_y
_atom_site_fract_z
H1         H    0.9628488234    0.9977125893    0.9360243842   0.00000  Uiso   1.00       -0.000000
H2         H    0.9627308234    0.9797805893    0.8899543842   0.00000  Uiso   1.00       -0.000000
H3         H    0.0371428234    0.9402305893    0.9051603842   0.00000  Uiso   1.00       -0.000000
H4         H    0.0372588234    0.9581645893    0.9512303842   0.00000  Uiso   1.00       -0.000000
X5         C    0.0000608234    0.9790545893    0.9464963842   0.00000  Uiso   1.00       -0.000000
C6         C    0.9791088234    0.9851305893    0.9292683842   0.00000  Uiso   1.00       -0.000000
C7         C    0.9790428234    0.9750485893    0.9033663842   0.00000  Uiso   1.00       -0.000000
X8         C    0.9999288234    0.9588885893    0.8946883842   0.00000  Uiso   1.00       -0.000000
C9         C    0.0208808234    0.9528125893    0.9119143842   0.00000  Uiso   1.00       -0.000000
C10        C    0.0209468234    0.9628945893    0.9378183842   0.00000  Uiso   1.00       -0.000000
loop_
_geom_bond_atom_site_label_1
_geom_bond_atom_site_label_2
_geom_bond_distance
_geom_bond_site_symmetry_2
_ccdc_geom_bond_type
H1           C6 0.022       .   S
H2           C7 0.022       .   S
H3           C9 0.022       .   S
H4          C10 0.022       .   S
X5           C6 0.028       .   A
X5          C10 0.028       .   A
C6           C7 0.028       .   S
C7           X8 0.028       .   A
X8           C9 0.028       .   A
C9          C10 0.028       .   S
