data_12c_Zr_1_Ch_dummy
_audit_creation_date              2024-11-15
_audit_creation_method            'MOFbuilder'
_symmetry_space_group_name_H-M    'P1'
_symmetry_Int_Tables_number       1
_symmetry_cell_setting            triclinic
loop_
_symmetry_equiv_pos_as_xyz
  x,y,z
_cell_length_a                    50
_cell_length_b                    50
_cell_length_c                    50
_cell_angle_alpha                 90
_cell_angle_beta                  90
_cell_angle_gamma                 90
loop_
_atom_site_label
_atom_site_type_symbol
_atom_site_fract_x
_atom_site_fract_y
_atom_site_fract_z
D55        D    1.0000000000    0.0176647252    0.9409814349   0.00000  Uiso   1.00       -0.000000
D56        D    1.0000000000    0.9823352748    0.9409814349   0.00000  Uiso   1.00       -0.000000
D57        D    0.0176647252    1.0000000000    0.9409814349   0.00000  Uiso   1.00       -0.000000
D58        D    0.9823352748    1.0000000000    0.9409814349   0.00000  Uiso   1.00       -0.000000
D59        D    0.0110200299    0.9889799701    0.9628946672   0.00000  Uiso   1.00       -0.000000
D60        D    0.9889799701    0.0110200299    0.9628946672   0.00000  Uiso   1.00       -0.000000
D61        D    0.9889799701    0.9889799701    0.9628946672   0.00000  Uiso   1.00       -0.000000
D62        D    0.0110200299    0.0110200299    0.9628946672   0.00000  Uiso   1.00       -0.000000
Zr9       Zr    1.0000000000    1.0000000000    0.9503600000   0.00000  Uiso   1.00       -0.000000
D63        D    0.0590185651    1.0000000000    0.9823352748   0.00000  Uiso   1.00       -0.000000
D64        D    0.0371053328    0.9889799701    0.9889799701   0.00000  Uiso   1.00       -0.000000
D65        D    0.0371053328    0.0110200299    0.9889799701   0.00000  Uiso   1.00       -0.000000
D66        D    0.0590185651    0.0000000000    0.0176647252   0.00000  Uiso   1.00       -0.000000
D67        D    0.0590185651    0.0176647252    0.0000000000   0.00000  Uiso   1.00       -0.000000
D68        D    0.0590185651    0.9823352748    0.0000000000   0.00000  Uiso   1.00       -0.000000
D69        D    0.0371053328    0.0110200299    0.0110200299   0.00000  Uiso   1.00       -0.000000
D70        D    0.0371053328    0.9889799701    0.0110200299   0.00000  Uiso   1.00       -0.000000
Zr36      Zr    0.0496400000    0.0000000000    0.0000000000   0.00000  Uiso   1.00       -0.000000
D71        D    0.9409814349    1.0000000000    0.9823352748   0.00000  Uiso   1.00       -0.000000
D72        D    0.9628946672    0.0110200299    0.9889799701   0.00000  Uiso   1.00       -0.000000
D73        D    0.9628946672    0.9889799701    0.9889799701   0.00000  Uiso   1.00       -0.000000
D74        D    0.9409814349    0.0000000000    0.0176647252   0.00000  Uiso   1.00       -0.000000
D75        D    0.9409814349    0.0176647252    0.0000000000   0.00000  Uiso   1.00       -0.000000
D76        D    0.9409814349    0.9823352748    0.0000000000   0.00000  Uiso   1.00       -0.000000
D77        D    0.9628946672    0.9889799701    0.0110200299   0.00000  Uiso   1.00       -0.000000
D78        D    0.9628946672    0.0110200299    0.0110200299   0.00000  Uiso   1.00       -0.000000
Zr37      Zr    0.9503600000    0.0000000000    0.0000000000   0.00000  Uiso   1.00       -0.000000
D79        D    0.0000000000    0.0590185651    0.9823352748   0.00000  Uiso   1.00       -0.000000
D80        D    0.9889799701    0.0371053328    0.9889799701   0.00000  Uiso   1.00       -0.000000
D81        D    0.0110200299    0.0371053328    0.9889799701   0.00000  Uiso   1.00       -0.000000
D82        D    0.0176647252    0.0590185651    0.0000000000   0.00000  Uiso   1.00       -0.000000
D83        D    0.9823352748    0.0590185651    0.0000000000   0.00000  Uiso   1.00       -0.000000
D84        D    0.0000000000    0.0590185651    0.0176647252   0.00000  Uiso   1.00       -0.000000
D85        D    0.0110200299    0.0371053328    0.0110200299   0.00000  Uiso   1.00       -0.000000
D86        D    0.9889799701    0.0371053328    0.0110200299   0.00000  Uiso   1.00       -0.000000
Zr38      Zr    0.0000000000    0.0496400000    0.0000000000   0.00000  Uiso   1.00       -0.000000
D87        D    1.0000000000    0.9409814349    0.9823352748   0.00000  Uiso   1.00       -0.000000
D88        D    0.0110200299    0.9628946672    0.9889799701   0.00000  Uiso   1.00       -0.000000
D89        D    0.9889799701    0.9628946672    0.9889799701   0.00000  Uiso   1.00       -0.000000
D90        D    0.0176647252    0.9409814349    0.0000000000   0.00000  Uiso   1.00       -0.000000
D91        D    0.9823352748    0.9409814349    0.0000000000   0.00000  Uiso   1.00       -0.000000
D92        D    1.0000000000    0.9409814349    0.0176647252   0.00000  Uiso   1.00       -0.000000
D93        D    0.9889799701    0.9628946672    0.0110200299   0.00000  Uiso   1.00       -0.000000
D94        D    0.0110200299    0.9628946672    0.0110200299   0.00000  Uiso   1.00       -0.000000
Zr39      Zr    1.0000000000    0.9503600000    0.0000000000   0.00000  Uiso   1.00       -0.000000
D100       D    0.0110200299    0.0110200299    0.0371053328   0.00000  Uiso   1.00       -0.000000
D101       D    0.0110200299    0.9889799701    0.0371053328   0.00000  Uiso   1.00       -0.000000
D102       D    0.9889799701    0.0110200299    0.0371053328   0.00000  Uiso   1.00       -0.000000
D95        D    0.0000000000    0.0176647252    0.0590185651   0.00000  Uiso   1.00       -0.000000
D96        D    0.0000000000    0.9823352748    0.0590185651   0.00000  Uiso   1.00       -0.000000
D97        D    0.0176647252    0.0000000000    0.0590185651   0.00000  Uiso   1.00       -0.000000
D98        D    0.9823352748    0.0000000000    0.0590185651   0.00000  Uiso   1.00       -0.000000
D99        D    0.9889799701    0.9889799701    0.0371053328   0.00000  Uiso   1.00       -0.000000
Zr40      Zr    0.0000000000    0.0000000000    0.0496400000   0.00000  Uiso   1.00       -0.000000
H16        H    0.0372600000    0.0372600000    0.9627400000   0.00000  Uiso   1.00       -0.000000
O17        O    0.0232240000    0.0232240000    0.9767760000   0.00000  Uiso   1.00       -0.000000
H18        H    0.9627400000    0.9627400000    0.9627400000   0.00000  Uiso   1.00       -0.000000
O19        O    0.9767760000    0.9767760000    0.9767760000   0.00000  Uiso   1.00       -0.000000
H51        H    0.9627400000    0.0372600000    0.0372600000   0.00000  Uiso   1.00       -0.000000
O52        O    0.9767760000    0.0232240000    0.0232240000   0.00000  Uiso   1.00       -0.000000
H53        H    0.0372600000    0.9627400000    0.0372600000   0.00000  Uiso   1.00       -0.000000
O54        O    0.0232240000    0.9767760000    0.0232240000   0.00000  Uiso   1.00       -0.000000
O10        O    0.0232240000    0.9767760000    0.9767760000   0.00000  Uiso   1.00       -0.000000
O11        O    0.9767760000    0.0232240000    0.9767760000   0.00000  Uiso   1.00       -0.000000
O41        O    0.9767760000    0.9767760000    0.0232240000   0.00000  Uiso   1.00       -0.000000
O42        O    0.0232240000    0.0232240000    0.0232240000   0.00000  Uiso   1.00       -0.000000
O1         O    0.9294120000    1.0000000000    0.9605440000   0.00000  Uiso   1.00       -0.000000
O8         O    0.9605440000    1.0000000000    0.9294120000   0.00000  Uiso   1.00       -0.000000
X12        C    0.9364120000    1.0000000000    0.9364120000   0.00000  Uiso   1.00       -0.000000
O2         O    0.0705880000    1.0000000000    0.9605440000   0.00000  Uiso   1.00       -0.000000
O7         O    0.0394560000    1.0000000000    0.9294120000   0.00000  Uiso   1.00       -0.000000
X13        C    0.0635880000    1.0000000000    0.9364120000   0.00000  Uiso   1.00       -0.000000
O3         O    1.0000000000    0.0394560000    0.9294120000   0.00000  Uiso   1.00       -0.000000
O6         O    0.0000000000    0.0705880000    0.9605440000   0.00000  Uiso   1.00       -0.000000
X14        C    0.0000000000    0.0635880000    0.9364120000   0.00000  Uiso   1.00       -0.000000
O4         O    1.0000000000    0.9605440000    0.9294120000   0.00000  Uiso   1.00       -0.000000
O5         O    1.0000000000    0.9294120000    0.9605440000   0.00000  Uiso   1.00       -0.000000
X15        C    1.0000000000    0.9364120000    0.9364120000   0.00000  Uiso   1.00       -0.000000
O20        O    0.0705880000    0.0000000000    0.0394560000   0.00000  Uiso   1.00       -0.000000
O34        O    0.0394560000    0.0000000000    0.0705880000   0.00000  Uiso   1.00       -0.000000
X43        C    0.0635880000    0.0000000000    0.0635880000   0.00000  Uiso   1.00       -0.000000
O21        O    0.9294120000    0.0000000000    0.0394560000   0.00000  Uiso   1.00       -0.000000
O35        O    0.9605440000    0.0000000000    0.0705880000   0.00000  Uiso   1.00       -0.000000
X44        C    0.9364120000    0.0000000000    0.0635880000   0.00000  Uiso   1.00       -0.000000
O22        O    0.0394560000    0.0705880000    0.0000000000   0.00000  Uiso   1.00       -0.000000
O30        O    0.0705880000    0.0394560000    0.0000000000   0.00000  Uiso   1.00       -0.000000
X45        C    0.0635880000    0.0635880000    0.0000000000   0.00000  Uiso   1.00       -0.000000
O23        O    0.0394560000    0.9294120000    0.0000000000   0.00000  Uiso   1.00       -0.000000
O33        O    0.0705880000    0.9605440000    0.0000000000   0.00000  Uiso   1.00       -0.000000
X46        C    0.0635880000    0.9364120000    0.0000000000   0.00000  Uiso   1.00       -0.000000
O24        O    0.9605440000    0.9294120000    0.0000000000   0.00000  Uiso   1.00       -0.000000
O32        O    0.9294120000    0.9605440000    0.0000000000   0.00000  Uiso   1.00       -0.000000
X47        C    0.9364120000    0.9364120000    0.0000000000   0.00000  Uiso   1.00       -0.000000
O25        O    0.9605440000    0.0705880000    0.0000000000   0.00000  Uiso   1.00       -0.000000
O31        O    0.9294120000    0.0394560000    0.0000000000   0.00000  Uiso   1.00       -0.000000
X48        C    0.9364120000    0.0635880000    0.0000000000   0.00000  Uiso   1.00       -0.000000
O26        O    0.0000000000    0.0394560000    0.0705880000   0.00000  Uiso   1.00       -0.000000
O28        O    0.0000000000    0.0705880000    0.0394560000   0.00000  Uiso   1.00       -0.000000
X49        C    0.0000000000    0.0635880000    0.0635880000   0.00000  Uiso   1.00       -0.000000
O27        O    0.0000000000    0.9605440000    0.0705880000   0.00000  Uiso   1.00       -0.000000
O29        O    1.0000000000    0.9294120000    0.0394560000   0.00000  Uiso   1.00       -0.000000
X50        C    0.0000000000    0.9364120000    0.0635880000   0.00000  Uiso   1.00       -0.000000
loop_
_geom_bond_atom_site_label_1
_geom_bond_atom_site_label_2
_geom_bond_distance
_geom_bond_site_symmetry_2
_ccdc_geom_bond_type
D56         Zr9 1.000       .   S
D62         Zr9 1.000       .   S
D55         Zr9 1.000       .   S
D57         Zr9 1.000       .   S
D60         Zr9 1.000       .   S
Zr9         D58 1.000       .   S
Zr9         D59 1.000       .   S
Zr9         D61 1.000       .   S
D64        Zr36 1.000       .   S
D70        Zr36 1.000       .   S
D68        Zr36 1.000       .   S
D63        Zr36 1.000       .   S
D69        Zr36 1.000       .   S
Zr36        D65 1.000       .   S
Zr36        D66 1.000       .   S
Zr36        D67 1.000       .   S
Zr37        D71 1.000       .   S
Zr37        D72 1.000       .   S
Zr37        D73 1.000       .   S
Zr37        D74 1.000       .   S
Zr37        D75 1.000       .   S
Zr37        D76 1.000       .   S
Zr37        D77 1.000       .   S
Zr37        D78 1.000       .   S
D84        Zr38 1.000       .   S
D85        Zr38 1.000       .   S
Zr38        D79 1.000       .   S
Zr38        D80 1.000       .   S
Zr38        D81 1.000       .   S
Zr38        D82 1.000       .   S
Zr38        D83 1.000       .   S
Zr38        D86 1.000       .   S
D89        Zr39 1.000       .   S
D93        Zr39 1.000       .   S
D87        Zr39 1.000       .   S
D92        Zr39 1.000       .   S
Zr39        D88 1.000       .   S
Zr39        D90 1.000       .   S
Zr39        D91 1.000       .   S
Zr39        D94 1.000       .   S
D96        Zr40 1.000       .   S
D97        Zr40 1.000       .   S
D98        Zr40 1.000       .   S
D100       Zr40 1.000       .   S
D99        Zr40 1.000       .   S
D101       Zr40 1.000       .   S
D95        Zr40 1.000       .   S
Zr40       D102 1.000       .   S
H16         O17 1.000       .   S
H18         O19 1.000       .   S
H51         O52 1.000       .   S
O54         H53 1.000       .   S
O8          X12 1.000       .   A
O1          X12 1.000       .   A
O2          X13 1.000       .   A
X13          O7 1.000       .   A
X14          O3 1.000       .   A
X14          O6 1.000       .   A
O4          X15 1.000       .   A
X15          O5 1.000       .   A
O20         X43 1.000       .   A
X43         O34 1.000       .   A
X44         O21 1.000       .   A
X44         O35 1.000       .   A
O30         X45 1.000       .   A
O22         X45 1.000       .   A
O23         X46 1.000       .   A
O33         X46 1.000       .   A
X47         O24 1.000       .   A
X47         O32 1.000       .   A
O25         X48 1.000       .   A
O31         X48 1.000       .   A
O28         X49 1.000       .   A
O26         X49 1.000       .   A
X50         O27 1.000       .   A
X50         O29 1.000       .   A
