data_6c_Zr_1_Ch_dummy
_audit_creation_date              2024-11-21
_audit_creation_method            'MOFbuilder'
_symmetry_space_group_name_H-M    'P1'
_symmetry_Int_Tables_number       1
_symmetry_cell_setting            triclinic
loop_
_symmetry_equiv_pos_as_xyz
  x,y,z
_cell_length_a                    50
_cell_length_b                    50
_cell_length_c                    50
_cell_angle_alpha                 90
_cell_angle_beta                  90
_cell_angle_gamma                 90
loop_
_atom_site_label
_atom_site_type_symbol
_atom_site_fract_x
_atom_site_fract_y
_atom_site_fract_z
D67        D    0.9532500191    0.9853097715    0.9556846708   0.00000  Uiso   1.00       -0.000000
D68        D    0.9699350186    0.9625139761    0.9570855638   0.00000  Uiso   1.00       -0.000000
D69        D    0.9908882690    0.9784829260    0.9673789566   0.00000  Uiso   1.00       -0.000000
D70        D    0.9742032695    0.0012787214    0.9659780637   0.00000  Uiso   1.00       -0.000000
D71        D    0.9570490596    0.9713947152    0.9695388578   0.00000  Uiso   1.00       -0.000000
D72        D    0.9780023100    0.9873636651    0.9798322507   0.00000  Uiso   1.00       -0.000000
D73        D    0.9870892285    0.9923979823    0.9535247696   0.00000  Uiso   1.00       -0.000000
D74        D    0.9661359781    0.9764290325    0.9432313768   0.00000  Uiso   1.00       -0.000000
Zr1       Zr    0.9712920000    0.9797280000    0.9649480000   0.00000  Uiso   1.00       -0.000000
D75        D    0.0267129188    0.0383842690    0.0397662573   0.00000  Uiso   1.00       -0.000000
D76        D    0.0444882966    0.0163927048    0.0404042584   0.00000  Uiso   1.00       -0.000000
D77        D    0.0323925584    0.0059390332    0.0170715803   0.00000  Uiso   1.00       -0.000000
D78        D    0.0146171806    0.0279305975    0.0164335793   0.00000  Uiso   1.00       -0.000000
D79        D    0.0447893108    0.0345838301    0.0320980949   0.00000  Uiso   1.00       -0.000000
D80        D    0.0326935726    0.0241301585    0.0087654169   0.00000  Uiso   1.00       -0.000000
D81        D    0.0143161664    0.0097394722    0.0247397427   0.00000  Uiso   1.00       -0.000000
D82        D    0.0264119046    0.0201931438    0.0480724208   0.00000  Uiso   1.00       -0.000000
Zr13      Zr    0.0287080000    0.0202720000    0.0350480000   0.00000  Uiso   1.00       -0.000000
D83        D    0.0266998289    0.0151998688    0.9462828219   0.00000  Uiso   1.00       -0.000000
D84        D    0.0126772576    0.0356191400    0.9599364242   0.00000  Uiso   1.00       -0.000000
D85        D    0.0225092797    0.0258775799    0.9846028660   0.00000  Uiso   1.00       -0.000000
D86        D    0.0365318509    0.0054583087    0.9709492636   0.00000  Uiso   1.00       -0.000000
D87        D    0.0309435292    0.0338970742    0.9519754060   0.00000  Uiso   1.00       -0.000000
D88        D    0.0407755512    0.0241555142    0.9766418478   0.00000  Uiso   1.00       -0.000000
D89        D    0.0182655793    0.0071803744    0.9789102818   0.00000  Uiso   1.00       -0.000000
D90        D    0.0084335573    0.0169219345    0.9542438401   0.00000  Uiso   1.00       -0.000000
Zr14      Zr    0.0306480000    0.0171960000    0.9649480000   0.00000  Uiso   1.00       -0.000000
D91        D    0.9512522695    0.9909498650    0.0415551436   0.00000  Uiso   1.00       -0.000000
D92        D    0.9662200237    0.9858578698    0.0181022564   0.00000  Uiso   1.00       -0.000000
D93        D    0.9892725408    0.9812213267    0.0338211597   0.00000  Uiso   1.00       -0.000000
D94        D    0.9743047866    0.9863133219    0.0572740469   0.00000  Uiso   1.00       -0.000000
D95        D    0.9553989402    0.9746873258    0.0306769571   0.00000  Uiso   1.00       -0.000000
D96        D    0.9784514573    0.9700507827    0.0463958604   0.00000  Uiso   1.00       -0.000000
D97        D    0.9851258701    0.9974838659    0.0446993462   0.00000  Uiso   1.00       -0.000000
D98        D    0.9620733530    0.0021204090    0.0289804429   0.00000  Uiso   1.00       -0.000000
Zr15      Zr    0.9693520000    0.9828040000    0.0350520000   0.00000  Uiso   1.00       -0.000000
D100       D    0.0101320869    0.9606521597    0.9965428416   0.00000  Uiso   1.00       -0.000000
D101       D    0.0328860061    0.9769621084    0.0005733174   0.00000  Uiso   1.00       -0.000000
D102       D    0.0443141932    0.9569625564    0.0169871669   0.00000  Uiso   1.00       -0.000000
D103       D    0.0220036089    0.9448643899    0.9934102249   0.00000  Uiso   1.00       -0.000000
D104       D    0.0447575281    0.9611743386    0.9974407006   0.00000  Uiso   1.00       -0.000000
D105       D    0.0324426712    0.9727503262    0.0201197837   0.00000  Uiso   1.00       -0.000000
D106       D    0.0096887520    0.9564403775    0.0160893079   0.00000  Uiso   1.00       -0.000000
D99        D    0.0215602740    0.9406526077    0.0129566911   0.00000  Uiso   1.00       -0.000000
Zr16      Zr    0.0264600000    0.9580840000    0.0025720000   0.00000  Uiso   1.00       -0.000000
D107       D    0.9800120850    0.0304462122    0.9832304820   0.00000  Uiso   1.00       -0.000000
D108       D    0.9765213959    0.0310656326    0.0112916902   0.00000  Uiso   1.00       -0.000000
D109       D    0.9557130182    0.0499858520    0.0082855778   0.00000  Uiso   1.00       -0.000000
D110       D    0.9592037073    0.0493664316    0.9802243696   0.00000  Uiso   1.00       -0.000000
D111       D    0.9688483209    0.0202482869    0.9963214213   0.00000  Uiso   1.00       -0.000000
D112       D    0.9480399432    0.0391685063    0.9933153089   0.00000  Uiso   1.00       -0.000000
D113       D    0.9668767823    0.0601837773    0.9951946385   0.00000  Uiso   1.00       -0.000000
D114       D    0.9876851600    0.0412635579    0.9982007509   0.00000  Uiso   1.00       -0.000000
Zr31      Zr    0.9735400000    0.0419160000    0.9974280000   0.00000  Uiso   1.00       -0.000000
H58        H    0.9331240000    0.9793440000    0.9305680000   0.00000  Uiso   1.00       -0.000000
H66        H    0.9420920000    0.0091760000    0.9340480000   0.00000  Uiso   1.00       -0.000000
O2         O    0.9367920000    0.9931240000    0.9443280000   0.00000  Uiso   1.00       -0.000000
H49        H    0.0662480000    0.9305400000    0.9851280000   0.00000  Uiso   1.00       -0.000000
H63        H    0.0553120000    0.9472280000    0.9611600000   0.00000  Uiso   1.00       -0.000000
O18        O    0.0611960000    0.9489920000    0.9799600000   0.00000  Uiso   1.00       -0.000000
H50        H    0.0455240000    0.0546480000    0.9332120000   0.00000  Uiso   1.00       -0.000000
H65        H    0.0143560000    0.0558080000    0.9344040000   0.00000  Uiso   1.00       -0.000000
O33        O    0.0303800000    0.0551080000    0.9459800000   0.00000  Uiso   1.00       -0.000000
H55        H    0.9353320000    0.0720640000    0.0147560000   0.00000  Uiso   1.00       -0.000000
H64        H    0.9421000000    0.0521000000    0.0376520000   0.00000  Uiso   1.00       -0.000000
O35        O    0.9381200000    0.0527640000    0.0183080000   0.00000  Uiso   1.00       -0.000000
H57        H    0.0557880000    0.9886120000    0.0654640000   0.00000  Uiso   1.00       -0.000000
H61        H    0.0759960000    0.0019120000    0.0458080000   0.00000  Uiso   1.00       -0.000000
O38        O    0.0613040000    0.0062360000    0.0583280000   0.00000  Uiso   1.00       -0.000000
H53        H    0.9559520000    0.9466800000    0.0689880000   0.00000  Uiso   1.00       -0.000000
H60        H    0.9683680000    0.9318040000    0.0445240000   0.00000  Uiso   1.00       -0.000000
O39        O    0.9718080000    0.9466680000    0.0571080000   0.00000  Uiso   1.00       -0.000000
H45        H    0.9774240000    0.9445440000    0.0025160000   0.00000  Uiso   1.00       -0.000000
O10        O    0.9846040000    0.9628520000    0.0012040000   0.00000  Uiso   1.00       -0.000000
H48        H    0.9825240000    0.0274440000    0.9496200000   0.00000  Uiso   1.00       -0.000000
O11        O    0.9885280000    0.0181720000    0.9659920000   0.00000  Uiso   1.00       -0.000000
H54        H    0.9282000000    0.9906360000    0.0644280000   0.00000  Uiso   1.00       -0.000000
O17        O    0.9353560000    0.0025840000    0.0503400000   0.00000  Uiso   1.00       -0.000000
H46        H    0.0598200000    0.9961680000    0.0018240000   0.00000  Uiso   1.00       -0.000000
O20        O    0.0401560000    0.9979200000    0.0012040000   0.00000  Uiso   1.00       -0.000000
H47        H    0.9794400000    0.0312560000    0.0468160000   0.00000  Uiso   1.00       -0.000000
O22        O    0.9867120000    0.0210520000    0.0316000000   0.00000  Uiso   1.00       -0.000000
H62        H    0.0599520000    0.9853120000    0.9365760000   0.00000  Uiso   1.00       -0.000000
O26        O    0.0656440000    0.9987280000    0.9499440000   0.00000  Uiso   1.00       -0.000000
H59        H    0.9362640000    0.0645080000    0.9686160000   0.00000  Uiso   1.00       -0.000000
O30        O    0.9403280000    0.0453040000    0.9712200000   0.00000  Uiso   1.00       -0.000000
H51        H    0.9734720000    0.0898080000    0.9782480000   0.00000  Uiso   1.00       -0.000000
O34        O    0.9841040000    0.0742200000    0.9722160000   0.00000  Uiso   1.00       -0.000000
H52        H    0.0286080000    0.9100480000    0.0212440000   0.00000  Uiso   1.00       -0.000000
O42        O    0.0175600000    0.9252160000    0.0276560000   0.00000  Uiso   1.00       -0.000000
H56        H    0.0730880000    0.9595520000    0.0256040000   0.00000  Uiso   1.00       -0.000000
O43        O    0.0566160000    0.9502120000    0.0313280000   0.00000  Uiso   1.00       -0.000000
O9         O    0.0132880000    0.9789480000    0.9684000000   0.00000  Uiso   1.00       -0.000000
O12        O    0.9598440000    0.0020800000    0.9987960000   0.00000  Uiso   1.00       -0.000000
O19        O    0.0114720000    0.9818240000    0.0340080000   0.00000  Uiso   1.00       -0.000000
O21        O    0.0153960000    0.0371480000    0.9987960000   0.00000  Uiso   1.00       -0.000000
O3         O    0.9802120000    0.9378560000    0.9522080000   0.00000  Uiso   1.00       -0.000000
O8         O    0.0148000000    0.9242840000    0.9757960000   0.00000  Uiso   1.00       -0.000000
X23        C    0.9971840000    0.9222080000    0.9593760000   0.00000  Uiso   1.00       -0.000000
O4         O    0.9835400000    0.9848440000    0.9223040000   0.00000  Uiso   1.00       -0.000000
O6         O    0.0207600000    0.0083360000    0.9223000000   0.00000  Uiso   1.00       -0.000000
X25        C    0.0024280000    0.9961520000    0.9123120000   0.00000  Uiso   1.00       -0.000000
O5         O    0.9336000000    0.9594360000    0.0219800000   0.00000  Uiso   1.00       -0.000000
O7         O    0.9348160000    0.9575040000    0.9780240000   0.00000  Uiso   1.00       -0.000000
X24        C    0.9257520000    0.9531320000    0.0000040000   0.00000  Uiso   1.00       -0.000000
O27        O    0.0664000000    0.0405640000    0.9780200000   0.00000  Uiso   1.00       -0.000000
O28        O    0.0651840000    0.0424960000    0.0219760000   0.00000  Uiso   1.00       -0.000000
X29        C    0.0742480000    0.0468680000    0.0000000000   0.00000  Uiso   1.00       -0.000000
O32        O    0.0197880000    0.0621440000    0.0477920000   0.00000  Uiso   1.00       -0.000000
O36        O    0.9852000000    0.0757160000    0.0242040000   0.00000  Uiso   1.00       -0.000000
X37        C    0.0028160000    0.0777920000    0.0406240000   0.00000  Uiso   1.00       -0.000000
O40        O    0.0164600000    0.0151560000    0.0776960000   0.00000  Uiso   1.00       -0.000000
O41        O    0.9792400000    0.9916640000    0.0777000000   0.00000  Uiso   1.00       -0.000000
X44        C    0.9975720000    0.0038480000    0.0876880000   0.00000  Uiso   1.00       -0.000000
loop_
_geom_bond_atom_site_label_1
_geom_bond_atom_site_label_2
_geom_bond_distance
_geom_bond_site_symmetry_2
_ccdc_geom_bond_type
D71         Zr1 1.000       .   S
D70         Zr1 1.000       .   S
D67         Zr1 1.000       .   S
D74         Zr1 1.000       .   S
Zr1         D68 1.000       .   S
Zr1         D69 1.000       .   S
Zr1         D72 1.000       .   S
Zr1         D73 1.000       .   S
D82        Zr13 1.000       .   S
D76        Zr13 1.000       .   S
D77        Zr13 1.000       .   S
D81        Zr13 1.000       .   S
D78        Zr13 1.000       .   S
Zr13        D75 1.000       .   S
Zr13        D79 1.000       .   S
Zr13        D80 1.000       .   S
D86        Zr14 1.000       .   S
D83        Zr14 1.000       .   S
D89        Zr14 1.000       .   S
D84        Zr14 1.000       .   S
Zr14        D85 1.000       .   S
Zr14        D87 1.000       .   S
Zr14        D88 1.000       .   S
Zr14        D90 1.000       .   S
D95        Zr15 1.000       .   S
Zr15        D91 1.000       .   S
Zr15        D92 1.000       .   S
Zr15        D93 1.000       .   S
Zr15        D94 1.000       .   S
Zr15        D96 1.000       .   S
Zr15        D97 1.000       .   S
Zr15        D98 1.000       .   S
D100       Zr16 1.000       .   S
D104       Zr16 1.000       .   S
D105       Zr16 1.000       .   S
D103       Zr16 1.000       .   S
D99        Zr16 1.000       .   S
D106       Zr16 1.000       .   S
D102       Zr16 1.000       .   S
D101       Zr16 1.000       .   S
D112       Zr31 1.000       .   S
Zr31       D107 1.000       .   S
Zr31       D108 1.000       .   S
Zr31       D109 1.000       .   S
Zr31       D110 1.000       .   S
Zr31       D111 1.000       .   S
Zr31       D113 1.000       .   S
Zr31       D114 1.000       .   S
H66          O2 1.000       .   S
H58          O2 1.000       .   S
H63         O18 1.000       .   S
O18         H49 1.000       .   S
H50         O33 1.000       .   S
O33         H65 1.000       .   S
H64         O35 1.000       .   S
O35         H55 1.000       .   S
H61         O38 1.000       .   S
H57         O38 1.000       .   S
O39         H53 1.000       .   S
O39         H60 1.000       .   S
H45         O10 1.000       .   S
O11         H48 1.000       .   S
O17         H54 1.000       .   S
O20         H46 1.000       .   S
H47         O22 1.000       .   S
H62         O26 1.000       .   S
H59         O30 1.000       .   S
H51         O34 1.000       .   S
O42         H52 1.000       .   S
H56         O43 1.000       .   S
O3          X23 1.000       .   A
X23          O8 1.000       .   A
X25          O4 1.000       .   A
X25          O6 1.000       .   A
X24          O5 1.000       .   A
X24          O7 1.000       .   A
O28         X29 1.000       .   A
X29         O27 1.000       .   A
X37         O32 1.000       .   A
X37         O36 1.000       .   A
O40         X44 1.000       .   A
O41         X44 1.000       .   A
