data_1B_2F_Ch
_audit_creation_date              2024-08-10
_audit_creation_method            'tobacco_3.0'
_symmetry_space_group_name_H-M    'P1'
_symmetry_Int_Tables_number       1
_symmetry_cell_setting            triclinic
loop_
_symmetry_equiv_pos_as_xyz
  x,y,z
_cell_length_a                    21.094565696093795
_cell_length_b                    21.094565696093795
_cell_length_c                    21.094565696093795
_cell_angle_alpha                 90.0
_cell_angle_beta                  90.0
_cell_angle_gamma                 90.0
loop_
_atom_site_label
_atom_site_type_symbol
_atom_site_fract_x
_atom_site_fract_y
_atom_site_fract_z
O1         O   -0.0000000000    0.0935217168    0.1673132337
O2         O    0.0000000000    0.0935217168   -0.1673132337
O3         O    0.0935217168    0.1673132337    0.0000000000
O4         O   -0.0935217168    0.1673132337    0.0000000000
O5         O   -0.1673132337    0.0935217168    0.0000000000
O6         O    0.1673132337    0.0935217168    0.0000000000
O7         O    0.0000000000    0.1673132337   -0.0935217168
O8         O   -0.0000000000    0.1673132337    0.0935217168
Zr9       Zr    0.0000000000    0.1176606352    0.0000000000
O10        O   -0.0550473528    0.0550473528   -0.0550473528
O11        O    0.0550473528    0.0550473528    0.0550473528
C12        C   -0.0000000000    0.1507212827    0.1507212827
C13        C    0.0000000000    0.1507212827   -0.1507212827
C14        C    0.1507212827    0.1507212827    0.0000000000
C15        C   -0.1507212827    0.1507212827    0.0000000000
H16        H    0.0883165848    0.0883165848   -0.0883165848
O17        O    0.0550473528    0.0550473528   -0.0550473528
H18        H   -0.0883165848    0.0883165848    0.0883165848
O19        O   -0.0550473528    0.0550473528    0.0550473528
O20        O    0.0000000000   -0.0935217168   -0.1673132337
O21        O   -0.0000000000   -0.0935217168    0.1673132337
O22        O    0.1673132337    0.0000000000   -0.0935217168
O23        O   -0.1673132337    0.0000000000   -0.0935217168
O24        O   -0.1673132337   -0.0000000000    0.0935217168
O25        O    0.1673132337   -0.0000000000    0.0935217168
O26        O    0.0935217168   -0.1673132337   -0.0000000000
O27        O   -0.0935217168   -0.1673132337   -0.0000000000
O28        O    0.1673132337   -0.0935217168   -0.0000000000
O29        O   -0.1673132337   -0.0935217168   -0.0000000000
O30        O    0.0935217168    0.0000000000   -0.1673132337
O31        O    0.0935217168   -0.0000000000    0.1673132337
O32        O   -0.0935217168   -0.0000000000    0.1673132337
O33        O   -0.0935217168    0.0000000000   -0.1673132337
O34        O    0.0000000000   -0.1673132337   -0.0935217168
O35        O   -0.0000000000   -0.1673132337    0.0935217168
Zr36      Zr    0.0000000000    0.0000000000   -0.1176606352
Zr37      Zr   -0.0000000000   -0.0000000000    0.1176606352
Zr38      Zr    0.1176606352   -0.0000000000    0.0000000000
Zr39      Zr   -0.1176606352    0.0000000000    0.0000000000
Zr40      Zr   -0.0000000000   -0.1176606352   -0.0000000000
O41        O   -0.0550473528   -0.0550473528    0.0550473528
O42        O    0.0550473528   -0.0550473528   -0.0550473528
C43        C    0.0000000000   -0.1507212827   -0.1507212827
C44        C   -0.0000000000   -0.1507212827    0.1507212827
C45        C    0.1507212827    0.0000000000   -0.1507212827
C46        C   -0.1507212827    0.0000000000   -0.1507212827
C47        C   -0.1507212827   -0.0000000000    0.1507212827
C48        C    0.1507212827   -0.0000000000    0.1507212827
C49        C    0.1507212827   -0.1507212827   -0.0000000000
C50        C   -0.1507212827   -0.1507212827   -0.0000000000
H51        H    0.0883165848   -0.0883165848    0.0883165848
O52        O    0.0550473528   -0.0550473528    0.0550473528
H53        H   -0.0883165848   -0.0883165848   -0.0883165848
O54        O   -0.0550473528   -0.0550473528   -0.0550473528
O55        O    0.0000000000    0.4064782832    0.3326867663
O56        O   -0.0000000000    0.4064782832    0.6673132337
O57        O    0.0935217168    0.3326867663    0.5000000000
O58        O   -0.0935217168    0.3326867663    0.5000000000
O59        O   -0.1673132337    0.4064782832    0.5000000000
O60        O    0.1673132337    0.4064782832    0.5000000000
O61        O   -0.0000000000    0.3326867663    0.5935217168
O62        O    0.0000000000    0.3326867663    0.4064782832
Zr63      Zr    0.0000000000    0.3823393648    0.5000000000
O64        O   -0.0550473528    0.4449526472    0.5550473528
O65        O    0.0550473528    0.4449526472    0.4449526472
C66        C    0.0000000000    0.3492787173    0.3492787173
C67        C   -0.0000000000    0.3492787173    0.6507212827
C68        C    0.1507212827    0.3492787173    0.5000000000
C69        C   -0.1507212827    0.3492787173    0.5000000000
H70        H    0.0883165848    0.4116834152    0.5883165848
O71        O    0.0550473528    0.4449526472    0.5550473528
H72        H   -0.0883165848    0.4116834152    0.4116834152
O73        O   -0.0550473528    0.4449526472    0.4449526472
O74        O   -0.0000000000    0.5935217168    0.6673132337
O75        O    0.0000000000    0.5935217168    0.3326867663
O76        O    0.1673132337    0.5000000000    0.5935217168
O77        O   -0.1673132337    0.5000000000    0.5935217168
O78        O   -0.1673132337    0.5000000000    0.4064782832
O79        O    0.1673132337    0.5000000000    0.4064782832
O80        O    0.0935217168    0.6673132337    0.5000000000
O81        O   -0.0935217168    0.6673132337    0.5000000000
O82        O    0.1673132337    0.5935217168    0.5000000000
O83        O   -0.1673132337    0.5935217168    0.5000000000
O84        O    0.0935217168    0.5000000000    0.6673132337
O85        O    0.0935217168    0.5000000000    0.3326867663
O86        O   -0.0935217168    0.5000000000    0.3326867663
O87        O   -0.0935217168    0.5000000000    0.6673132337
O88        O    0.0000000000    0.6673132337    0.5935217168
O89        O    0.0000000000    0.6673132337    0.4064782832
Zr90      Zr    0.0000000000    0.5000000000    0.6176606352
Zr91      Zr    0.0000000000    0.5000000000    0.3823393648
Zr92      Zr    0.1176606352    0.5000000000    0.5000000000
Zr93      Zr   -0.1176606352    0.5000000000    0.5000000000
Zr94      Zr    0.0000000000    0.6176606352    0.5000000000
O95        O   -0.0550473528    0.5550473528    0.4449526472
O96        O    0.0550473528    0.5550473528    0.5550473528
C97        C    0.0000000000    0.6507212827    0.6507212827
C98        C    0.0000000000    0.6507212827    0.3492787173
C99        C    0.1507212827    0.5000000000    0.6507212827
C100       C   -0.1507212827    0.5000000000    0.6507212827
C101       C   -0.1507212827    0.5000000000    0.3492787173
C102       C    0.1507212827    0.5000000000    0.3492787173
C103       C    0.1507212827    0.6507212827    0.5000000000
C104       C   -0.1507212827    0.6507212827    0.5000000000
H105       H    0.0883165848    0.5883165848    0.4116834152
O106       O    0.0550473528    0.5550473528    0.4449526472
H107       H   -0.0883165848    0.5883165848    0.5883165848
O108       O   -0.0550473528    0.5550473528    0.5550473528
O109       O    0.5935217168    1.0000000000    0.3326867663
O110       O    0.5935217168    1.0000000000    0.6673132337
O111       O    0.6673132337    1.0935217168    0.5000000000
O112       O    0.6673132337    0.9064782832    0.5000000000
O113       O    0.5935217168    0.8326867663    0.5000000000
O114       O    0.5935217168    1.1673132337    0.5000000000
O115       O    0.6673132337    1.0000000000    0.5935217168
O116       O    0.6673132337    1.0000000000    0.4064782832
Zr117     Zr    0.6176606352    1.0000000000    0.5000000000
O118       O    0.5550473528    0.9449526472    0.5550473528
O119       O    0.5550473528    1.0550473528    0.4449526472
C120       C    0.6507212827    1.0000000000    0.3492787173
C121       C    0.6507212827    1.0000000000    0.6507212827
C122       C    0.6507212827    1.1507212827    0.5000000000
C123       C    0.6507212827    0.8492787173    0.5000000000
H124       H    0.5883165848    1.0883165848    0.5883165848
O125       O    0.5550473528    1.0550473528    0.5550473528
H126       H    0.5883165848    0.9116834152    0.4116834152
O127       O    0.5550473528    0.9449526472    0.4449526472
O128       O    0.4064782832    1.0000000000    0.6673132337
O129       O    0.4064782832    1.0000000000    0.3326867663
O130       O    0.5000000000    1.1673132337    0.5935217168
O131       O    0.5000000000    0.8326867663    0.5935217168
O132       O    0.5000000000    0.8326867663    0.4064782832
O133       O    0.5000000000    1.1673132337    0.4064782832
O134       O    0.3326867663    1.0935217168    0.5000000000
O135       O    0.3326867663    0.9064782832    0.5000000000
O136       O    0.4064782832    1.1673132337    0.5000000000
O137       O    0.4064782832    0.8326867663    0.5000000000
O138       O    0.5000000000    1.0935217168    0.6673132337
O139       O    0.5000000000    1.0935217168    0.3326867663
O140       O    0.5000000000    0.9064782832    0.3326867663
O141       O    0.5000000000    0.9064782832    0.6673132337
O142       O    0.3326867663    1.0000000000    0.5935217168
O143       O    0.3326867663    1.0000000000    0.4064782832
Zr144     Zr    0.5000000000    1.0000000000    0.6176606352
Zr145     Zr    0.5000000000    1.0000000000    0.3823393648
Zr146     Zr    0.5000000000    1.1176606352    0.5000000000
Zr147     Zr    0.5000000000    0.8823393648    0.5000000000
Zr148     Zr    0.3823393648    1.0000000000    0.5000000000
O149       O    0.4449526472    0.9449526472    0.4449526472
O150       O    0.4449526472    1.0550473528    0.5550473528
C151       C    0.3492787173    1.0000000000    0.6507212827
C152       C    0.3492787173    1.0000000000    0.3492787173
C153       C    0.5000000000    1.1507212827    0.6507212827
C154       C    0.5000000000    0.8492787173    0.6507212827
C155       C    0.5000000000    0.8492787173    0.3492787173
C156       C    0.5000000000    1.1507212827    0.3492787173
C157       C    0.3492787173    1.1507212827    0.5000000000
C158       C    0.3492787173    0.8492787173    0.5000000000
H159       H    0.4116834152    1.0883165848    0.4116834152
O160       O    0.4449526472    1.0550473528    0.4449526472
H161       H    0.4116834152    0.9116834152    0.5883165848
O162       O    0.4449526472    0.9449526472    0.5550473528
O163       O    0.4064782832    0.3326867663    1.0000000000
O164       O    0.4064782832    0.6673132337    1.0000000000
O165       O    0.3326867663    0.5000000000    1.0935217168
O166       O    0.3326867663    0.5000000000    0.9064782832
O167       O    0.4064782832    0.5000000000    0.8326867663
O168       O    0.4064782832    0.5000000000    1.1673132337
O169       O    0.3326867663    0.5935217168    1.0000000000
O170       O    0.3326867663    0.4064782832    1.0000000000
Zr171     Zr    0.3823393648    0.5000000000    1.0000000000
O172       O    0.4449526472    0.5550473528    0.9449526472
O173       O    0.4449526472    0.4449526472    1.0550473528
C174       C    0.3492787173    0.3492787173    1.0000000000
C175       C    0.3492787173    0.6507212827    1.0000000000
C176       C    0.3492787173    0.5000000000    1.1507212827
C177       C    0.3492787173    0.5000000000    0.8492787173
H178       H    0.4116834152    0.5883165848    1.0883165848
O179       O    0.4449526472    0.5550473528    1.0550473528
H180       H    0.4116834152    0.4116834152    0.9116834152
O181       O    0.4449526472    0.4449526472    0.9449526472
O182       O    0.5935217168    0.6673132337    1.0000000000
O183       O    0.5935217168    0.3326867663    1.0000000000
O184       O    0.5000000000    0.5935217168    1.1673132337
O185       O    0.5000000000    0.5935217168    0.8326867663
O186       O    0.5000000000    0.4064782832    0.8326867663
O187       O    0.5000000000    0.4064782832    1.1673132337
O188       O    0.6673132337    0.5000000000    1.0935217168
O189       O    0.6673132337    0.5000000000    0.9064782832
O190       O    0.5935217168    0.5000000000    1.1673132337
O191       O    0.5935217168    0.5000000000    0.8326867663
O192       O    0.5000000000    0.6673132337    1.0935217168
O193       O    0.5000000000    0.3326867663    1.0935217168
O194       O    0.5000000000    0.3326867663    0.9064782832
O195       O    0.5000000000    0.6673132337    0.9064782832
O196       O    0.6673132337    0.5935217168    1.0000000000
O197       O    0.6673132337    0.4064782832    1.0000000000
Zr198     Zr    0.5000000000    0.6176606352    1.0000000000
Zr199     Zr    0.5000000000    0.3823393648    1.0000000000
Zr200     Zr    0.5000000000    0.5000000000    1.1176606352
Zr201     Zr    0.5000000000    0.5000000000    0.8823393648
Zr202     Zr    0.6176606352    0.5000000000    1.0000000000
O203       O    0.5550473528    0.4449526472    0.9449526472
O204       O    0.5550473528    0.5550473528    1.0550473528
C205       C    0.6507212827    0.6507212827    1.0000000000
C206       C    0.6507212827    0.3492787173    1.0000000000
C207       C    0.5000000000    0.6507212827    1.1507212827
C208       C    0.5000000000    0.6507212827    0.8492787173
C209       C    0.5000000000    0.3492787173    0.8492787173
C210       C    0.5000000000    0.3492787173    1.1507212827
C211       C    0.6507212827    0.5000000000    1.1507212827
C212       C    0.6507212827    0.5000000000    0.8492787173
H213       H    0.5883165848    0.4116834152    1.0883165848
O214       O    0.5550473528    0.4449526472    1.0550473528
H215       H    0.5883165848    0.5883165848    0.9116834152
O216       O    0.5550473528    0.5550473528    0.9449526472
C447       C    0.5451125585    1.2512161997    0.2981553569
C448       C    0.5000000000    1.2023433193    0.2976566807
C449       C    0.4551323413    1.2024280960    0.2484598626
C450       C    0.4548941159    1.2487797117    0.2018392926
C451       C    0.5000000000    1.2976566807    0.2023433193
C452       C    0.5448676587    1.2975719040    0.2515401374
F453       F    0.5895168359    1.3428844012    0.2550886877
H454       H    0.5807090748    1.2532373085    0.3351017571
H455       H    0.4192909252    1.2467626915    0.1648982429
F456       F    0.4104831641    1.1571155988    0.2449113123
C437       C    0.4898431200    0.7662214533    0.1868393895
C438       C    0.5000000000    0.7023433193    0.2023433193
C439       C    0.5100977171    0.6875053932    0.2664628402
C440       C    0.5101474538    0.7337788293    0.3131615898
C441       C    0.5000000000    0.7976566807    0.2976566807
C442       C    0.4899022829    0.8124946068    0.2335371598
F443       F    0.4798481312    0.8726586629    0.2151370506
H444       H    0.4818336478    0.7800812732    0.1380542782
H445       H    0.5181663522    0.7199187268    0.3619457218
F446       F    0.5201518688    0.6273413371    0.2848629494
C427       C    0.5567986653    0.7228001490    0.7697393062
C428       C    0.5000000000    0.7023433193    0.7976566807
C429       C    0.4435055695    0.7306910307    0.7767227973
C430       C    0.4432016573    0.7771938114    0.7302533923
C431       C    0.5000000000    0.7976566807    0.7023433193
C432       C    0.5564944305    0.7693089693    0.7232772027
F433       F    0.6127080470    0.7864977510    0.6987020375
H434       H    0.6016212343    0.7023978904    0.7842623391
H435       H    0.3983787657    0.7976021096    0.7157376609
F436       F    0.3872919530    0.7135022490    0.8012979625
C417       C    0.5526523011    1.2889881711    0.7579509861
C418       C    0.5000000000    1.2976566807    0.7976566807
C419       C    0.4476319618    1.2575774300    0.7884543366
C420       C    0.4473524030    1.2110054115    0.7420541695
C421       C    0.5000000000    1.2023433193    0.7023433193
C422       C    0.5523680382    1.2424225700    0.7115456634
F423       F    0.6044788892    1.2368981553    0.6753061313
H424       H    0.5942000411    1.3187009320    0.7631635166
H425       H    0.4057999589    1.1812990680    0.7368364834
F426       F    0.3955211108    1.2631018447    0.8246938687
C407       C   -0.2668057716    0.3137449288    0.4968838203
C408       C   -0.2023433193    0.2976566807    0.5000000000
C409       C   -0.1869246244    0.2329563910    0.5030947150
C410       C   -0.2331953404    0.1862549214    0.5031067652
C411       C   -0.2976566807    0.2023433193    0.5000000000
C412       C   -0.3130753756    0.2670436090    0.4969052850
F413       F   -0.3738178980    0.2860221846    0.4938193057
H414       H   -0.2811261927    0.3629906413    0.4944305221
H415       H   -0.2188738073    0.1370093587    0.5055694779
F416       F   -0.1261821020    0.2139778154    0.5061806943
C397       C   -0.1862550712    0.7668057716    0.4968838203
C398       C   -0.2023433193    0.7023433193    0.5000000000
C399       C   -0.2670436090    0.6869246244    0.5030947150
C400       C   -0.3137450786    0.7331953404    0.5031067652
C401       C   -0.2976566807    0.7976566807    0.5000000000
C402       C   -0.2329563910    0.8130753756    0.4969052850
F403       F   -0.2139778154    0.8738178980    0.4938193057
H404       H   -0.1370093587    0.7811261927    0.4944305221
H405       H   -0.3629906413    0.7188738073    0.5055694779
F406       F   -0.2860221846    0.6261821020    0.5061806943
C387       C    0.2662214533    0.3131606105    0.5101568800
C388       C    0.2023433193    0.2976566807    0.5000000000
C389       C    0.1875053932    0.2335371598    0.4899022829
C390       C    0.2337788293    0.1868384102    0.4898525462
C391       C    0.2976566807    0.2023433193    0.5000000000
C392       C    0.3124946068    0.2664628402    0.5100977171
F393       F    0.3726586629    0.2848629494    0.5201518688
H394       H    0.2800812732    0.3619457218    0.5181663522
H395       H    0.2199187268    0.1380542782    0.4818336478
F396       F    0.1273413371    0.2151370506    0.4798481312
C377       C    0.2337124201    0.7193484227    0.5561315957
C378       C    0.2023433193    0.7023433193    0.5000000000
C379       C    0.2198439525    0.7341242809    0.4441686538
C380       C    0.2662948761    0.7806455429    0.4438679117
C381       C    0.2976566807    0.7976566807    0.5000000000
C382       C    0.2801560475    0.7658757191    0.5558313462
F383       F    0.3081473798    0.7796483336    0.6113846003
H384       H    0.2219133265    0.6962222248    0.6004282513
H385       H    0.2780866735    0.8037777752    0.3995717487
F386       F    0.1918526202    0.7203516664    0.3886153997
C367       C   -0.2337785467    0.5101568800    0.1868393895
C368       C   -0.2976566807    0.5000000000    0.2023433193
C369       C   -0.3124946068    0.4899022829    0.2664628402
C370       C   -0.2662211707    0.4898525462    0.3131615898
C371       C   -0.2023433193    0.5000000000    0.2976566807
C372       C   -0.1875053932    0.5100977171    0.2335371598
F373       F   -0.1273413371    0.5201518688    0.2151370506
H374       H   -0.2199187268    0.5181663522    0.1380542782
H375       H   -0.2800812732    0.4818336478    0.3619457218
F376       F   -0.3726586629    0.4798481312    0.2848629494
C357       C    0.2668651928    0.5003614947    0.3138043500
C358       C    0.2023433193    0.5000000000    0.2976566807
C359       C    0.1868657270    0.4996356883    0.2328974936
C360       C    0.2331363242    0.4996291498    0.1861959051
C361       C    0.2976566807    0.5000000000    0.2023433193
C362       C    0.3131342730    0.5003643117    0.2671025064
F363       F    0.3739356863    0.5007201934    0.2861399728
H364       H    0.2812322550    0.5006525730    0.3630967037
H365       H    0.2187677450    0.4993474270    0.1369032963
F366       F    0.1260643137    0.4992798066    0.2138600272
C347       C    0.3131606105    0.4898431200    0.7337785467
C348       C    0.2976566807    0.5000000000    0.7976566807
C349       C    0.2335371598    0.5100977171    0.8124946068
C350       C    0.1868384102    0.5101474538    0.7662211707
C351       C    0.2023433193    0.5000000000    0.7023433193
C352       C    0.2664628402    0.4899022829    0.6875053932
F353       F    0.2848629494    0.4798481312    0.6273413371
H354       H    0.3619457218    0.4818336478    0.7199187268
H355       H    0.1380542782    0.5181663522    0.7800812732
F356       F    0.2151370506    0.5201518688    0.8726586629
C337       C   -0.2665921589    0.4933642925    0.6864686839
C338       C   -0.2023433193    0.5000000000    0.7023433193
C339       C   -0.1871368837    0.5065953889    0.7668313497
C340       C   -0.2334085401    0.5066262690    0.8135318789
C341       C   -0.2976566807    0.5000000000    0.7976566807
C342       C   -0.3128631163    0.4934046111    0.7331686503
F343       F   -0.3733941432    0.4868353558    0.7144015702
H344       H   -0.2807442634    0.4881335675    0.6373912880
H345       H   -0.2192557366    0.5118664325    0.8626087120
F346       F   -0.1266058568    0.5131646442    0.7855984298
C327       C   -0.2662875799   -0.2806515773    0.0561315957
C328       C   -0.2976566807   -0.2976566807   -0.0000000000
C329       C   -0.2801560475   -0.2658757191   -0.0558313462
C330       C   -0.2337051239   -0.2193544571   -0.0561320883
C331       C   -0.2023433193   -0.2023433193   -0.0000000000
C332       C   -0.2198439525   -0.2341242809    0.0558313462
F333       F   -0.1918526202   -0.2203516664    0.1113846003
H334       H   -0.2780866735   -0.3037777752    0.1004282513
H335       H   -0.2219133265   -0.1962222248   -0.1004282513
F336       F   -0.3081473798   -0.2796483336   -0.1113846003
C317       C   -0.2806515773    0.2662875799    0.0561315957
C318       C   -0.2976566807    0.2976566807   -0.0000000000
C319       C   -0.2658757191    0.2801560475   -0.0558313462
C320       C   -0.2193544571    0.2337051239   -0.0561320883
C321       C   -0.2023433193    0.2023433193   -0.0000000000
C322       C   -0.2341242809    0.2198439525    0.0558313462
F323       F   -0.2203516664    0.1918526202    0.1113846003
H324       H   -0.3037777752    0.2780866735    0.1004282513
H325       H   -0.1962222248    0.2219133265   -0.1004282513
F326       F   -0.2796483336    0.3081473798   -0.1113846003
C307       C    0.2243269496   -0.2287338932    0.0569579465
C308       C    0.2023433193   -0.2023433193   -0.0000000000
C309       C    0.2291724107   -0.2247958227   -0.0566526773
C310       C    0.2756670243   -0.2712733948   -0.0569572661
C311       C    0.2976566807   -0.2976566807   -0.0000000000
C312       C    0.2708275893   -0.2752041773    0.0566526773
F313       F    0.2895274459   -0.2982682676    0.1130240063
H314       H    0.2051295601   -0.2130059913    0.1019059906
H315       H    0.2948704399   -0.2869940087   -0.1019059906
F316       F    0.2104725541   -0.2017317324   -0.1130240063
C297       C    0.2337124201    0.2193484227    0.0561315957
C298       C    0.2023433193    0.2023433193   -0.0000000000
C299       C    0.2198439525    0.2341242809   -0.0558313462
C300       C    0.2662948761    0.2806455429   -0.0561320883
C301       C    0.2976566807    0.2976566807   -0.0000000000
C302       C    0.2801560475    0.2658757191    0.0558313462
F303       F    0.3081473798    0.2796483336    0.1113846003
H304       H    0.2219133265    0.1962222248    0.1004282513
H305       H    0.2780866735    0.3037777752   -0.1004282513
F306       F    0.1918526202    0.2203516664   -0.1113846003
C287       C   -0.3137449288   -0.0031161797   -0.2331942284
C288       C   -0.2976566807   -0.0000000000   -0.2976566807
C289       C   -0.2329563910    0.0030947150   -0.3130753756
C290       C   -0.1862549214    0.0031067652   -0.2668046596
C291       C   -0.2023433193    0.0000000000   -0.2023433193
C292       C   -0.2670436090   -0.0030947150   -0.1869246244
F293       F   -0.2860221846   -0.0061806943   -0.1261821020
H294       H   -0.3629906413   -0.0055694779   -0.2188738073
H295       H   -0.1370093587    0.0055694779   -0.2811261927
F296       F   -0.2139778154    0.0061806943   -0.3738178980
C277       C    0.3131606105    0.0101568800   -0.2337785467
C278       C    0.2976566807   -0.0000000000   -0.2976566807
C279       C    0.2335371598   -0.0100977171   -0.3124946068
C280       C    0.1868384102   -0.0101474538   -0.2662211707
C281       C    0.2023433193   -0.0000000000   -0.2023433193
C282       C    0.2664628402    0.0100977171   -0.1875053932
F283       F    0.2848629494    0.0201518688   -0.1273413371
H284       H    0.3619457218    0.0181663522   -0.2199187268
H285       H    0.1380542782   -0.0181663522   -0.2800812732
F286       F    0.2151370506   -0.0201518688   -0.3726586629
C267       C    0.2662875799   -0.0561315957    0.2806515773
C268       C    0.2976566807   -0.0000000000    0.2976566807
C269       C    0.2801560475    0.0558313462    0.2658757191
C270       C    0.2337051239    0.0561320883    0.2193544571
C271       C    0.2023433193   -0.0000000000    0.2023433193
C272       C    0.2198439525   -0.0558313462    0.2341242809
F273       F    0.1918526202   -0.1113846003    0.2203516664
H274       H    0.2780866735   -0.1004282513    0.3037777752
H275       H    0.2219133265    0.1004282513    0.1962222248
F276       F    0.3081473798    0.1113846003    0.2796483336
C257       C   -0.1868393895    0.0101568800    0.2662214533
C258       C   -0.2023433193   -0.0000000000    0.2023433193
C259       C   -0.2664628402   -0.0100977171    0.1875053932
C260       C   -0.3131615898   -0.0101474538    0.2337788293
C261       C   -0.2976566807   -0.0000000000    0.2976566807
C262       C   -0.2335371598    0.0100977171    0.3124946068
F263       F   -0.2151370506    0.0201518688    0.3726586629
H264       H   -0.1380542782    0.0181663522    0.2800812732
H265       H   -0.3619457218   -0.0181663522    0.2199187268
F266       F   -0.2848629494   -0.0201518688    0.1273413371
C247       C    0.0353695837    0.3051153586   -0.2418237986
C248       C   -0.0000000000    0.2976566807   -0.2976566807
C249       C   -0.0351835888    0.2415419402   -0.3044898264
C250       C   -0.0353761897    0.1948887779   -0.2581708030
C251       C    0.0000000000    0.2023433193   -0.2023433193
C252       C    0.0351835888    0.2584580598   -0.1955101736
F253       F    0.0701874773    0.2688968286   -0.1433074579
H254       H    0.0632856529    0.3475483711   -0.2343160776
H255       H   -0.0632856529    0.1524516289   -0.2656839224
F256       F   -0.0701874773    0.2311031714   -0.3566925421
C237       C   -0.0378756357   -0.1963695655   -0.2566912773
C238       C    0.0000000000   -0.2023433193   -0.2023433193
C239       C    0.0376760229   -0.2569809532   -0.1969872802
C240       C    0.0378818445   -0.3036260382   -0.2433143808
C241       C    0.0000000000   -0.2976566807   -0.2976566807
C242       C   -0.0376760229   -0.2430190468   -0.3030127198
F243       F   -0.0751602274   -0.2340498525   -0.3537458609
H244       H   -0.0677691138   -0.1551085447   -0.2630270067
H245       H    0.0677691138   -0.3448914553   -0.2369729933
F246       F    0.0751602274   -0.2659501475   -0.1462541391
C227       C    0.0424788220   -0.2534513048    0.1996095380
C228       C   -0.0000000000   -0.2023433193    0.2023433193
C229       C   -0.0422477863   -0.2002051356    0.2537630978
C230       C   -0.0424716839   -0.2465449591    0.3003954600
C231       C    0.0000000000   -0.2976566807    0.2976566807
C232       C    0.0422477863   -0.2997948644    0.2462369022
F233       F    0.0842904522   -0.3473195128    0.2404762007
H234       H    0.0759966326   -0.2572360320    0.1608995193
H235       H   -0.0759966326   -0.2427639680    0.3391004807
F236       F   -0.0842904522   -0.1526804872    0.2595237993
C217       C    0.0314658405    0.2398257149    0.3071134423
C218       C    0.0000000000    0.2976566807    0.2976566807
C219       C   -0.0313010212    0.3064774222    0.2395543444
C220       C   -0.0314729919    0.2601692980    0.1928902829
C221       C   -0.0000000000    0.2023433193    0.2023433193
C222       C    0.0313010212    0.1935225778    0.2604456556
F223       F    0.0624412709    0.1393424448    0.2728618417
H224       H    0.0563016019    0.2307409474    0.3511235012
H225       H   -0.0563016019    0.2692590526    0.1488764988
F226       F   -0.0624412709    0.3606575552    0.2271381583
loop_
_geom_bond_atom_site_label_1
_geom_bond_atom_site_label_2
_geom_bond_distance
_geom_bond_site_symmetry_2
_ccdc_geom_bond_type
O1         Zr37 2.234       .   S
O1          C12 1.256       .   A
O2         Zr36 2.234       .   S
O2          C13 1.256       .   A
O3          Zr9 2.234       .   S
O3          C14 1.256       .   A
O4          Zr9 2.234       .   S
O4          C15 1.256       .   A
O5         Zr39 2.234       .   S
O5          C15 1.256       .   A
O6         Zr38 2.234       .   S
O6          C14 1.256       .   A
O7          Zr9 2.234       .   S
O7          C13 1.256       .   A
O8          Zr9 2.234       .   S
O8          C12 1.256       .   A
Zr9         O10 2.107       .   S
Zr9         O11 2.107       .   S
Zr9         O19 2.107       .   S
Zr9         O17 2.107       .   S
O10        Zr36 2.107       .   S
O10        Zr39 2.107       .   S
O11        Zr37 2.107       .   S
O11        Zr38 2.107       .   S
C12        C221 1.540       .   S
C13        C251 1.540       .   S
C14        C298 1.540       .   S
C15        C321 1.540       .   S
H16         O17 1.216       .   S
O17        Zr36 2.107       .   S
O17        Zr38 2.107       .   S
H18         O19 1.216       .   S
O19        Zr37 2.107       .   S
O19        Zr39 2.107       .   S
O20        Zr36 2.234       .   S
O20         C43 1.256       .   A
O21        Zr37 2.234       .   S
O21         C44 1.256       .   A
O22        Zr38 2.234       .   S
O22         C45 1.256       .   A
O23        Zr39 2.234       .   S
O23         C46 1.256       .   A
O24        Zr39 2.234       .   S
O24         C47 1.256       .   A
O25        Zr38 2.234       .   S
O25         C48 1.256       .   A
O26        Zr40 2.234       .   S
O26         C49 1.256       .   A
O27        Zr40 2.234       .   S
O27         C50 1.256       .   A
O28        Zr38 2.234       .   S
O28         C49 1.256       .   A
O29        Zr39 2.234       .   S
O29         C50 1.256       .   A
O30        Zr36 2.234       .   S
O30         C45 1.256       .   A
O31        Zr37 2.234       .   S
O31         C48 1.256       .   A
O32        Zr37 2.234       .   S
O32         C47 1.256       .   A
O33        Zr36 2.234       .   S
O33         C46 1.256       .   A
O34        Zr40 2.234       .   S
O34         C43 1.256       .   A
O35        Zr40 2.234       .   S
O35         C44 1.256       .   A
Zr36        O42 2.107       .   S
Zr36        O54 2.107       .   S
Zr37        O41 2.107       .   S
Zr37        O52 2.107       .   S
Zr38        O42 2.107       .   S
Zr38        O52 2.107       .   S
Zr39        O41 2.107       .   S
Zr39        O54 2.107       .   S
Zr40        O41 2.107       .   S
Zr40        O42 2.107       .   S
Zr40        O54 2.107       .   S
Zr40        O52 2.107       .   S
C43        C238 1.540       .   S
C44        C228 1.540       .   S
C45        C281 1.540       .   S
C46        C291 1.540       .   S
C47        C258 1.540       .   S
C48        C271 1.540       .   S
C49        C308 1.540       .   S
C50        C331 1.540       .   S
H51         O52 1.216       .   S
H53         O54 1.216       .   S
O55        Zr91 2.234       .   S
O55         C66 1.256       .   A
O56        Zr90 2.234       .   S
O56         C67 1.256       .   A
O57        Zr63 2.234       .   S
O57         C68 1.256       .   A
O58        Zr63 2.234       .   S
O58         C69 1.256       .   A
O59        Zr93 2.234       .   S
O59         C69 1.256       .   A
O60        Zr92 2.234       .   S
O60         C68 1.256       .   A
O61        Zr63 2.234       .   S
O61         C67 1.256       .   A
O62        Zr63 2.234       .   S
O62         C66 1.256       .   A
Zr63        O64 2.107       .   S
Zr63        O65 2.107       .   S
Zr63        O73 2.107       .   S
Zr63        O71 2.107       .   S
O64        Zr90 2.107       .   S
O64        Zr93 2.107       .   S
O65        Zr91 2.107       .   S
O65        Zr92 2.107       .   S
C66        C218 1.540       .   S
C67        C248 1.540   1_556   S
C68        C388 1.540       .   S
C69        C408 1.540       .   S
H70         O71 1.216       .   S
O71        Zr90 2.107       .   S
O71        Zr92 2.107       .   S
H72         O73 1.216       .   S
O73        Zr91 2.107       .   S
O73        Zr93 2.107       .   S
O74        Zr90 2.234       .   S
O74         C97 1.256       .   A
O75        Zr91 2.234       .   S
O75         C98 1.256       .   A
O76        Zr92 2.234       .   S
O76         C99 1.256       .   A
O77        Zr93 2.234       .   S
O77        C100 1.256       .   A
O78        Zr93 2.234       .   S
O78        C101 1.256       .   A
O79        Zr92 2.234       .   S
O79        C102 1.256       .   A
O80        Zr94 2.234       .   S
O80        C103 1.256       .   A
O81        Zr94 2.234       .   S
O81        C104 1.256       .   A
O82        Zr92 2.234       .   S
O82        C103 1.256       .   A
O83        Zr93 2.234       .   S
O83        C104 1.256       .   A
O84        Zr90 2.234       .   S
O84         C99 1.256       .   A
O85        Zr91 2.234       .   S
O85        C102 1.256       .   A
O86        Zr91 2.234       .   S
O86        C101 1.256       .   A
O87        Zr90 2.234       .   S
O87        C100 1.256       .   A
O88        Zr94 2.234       .   S
O88         C97 1.256       .   A
O89        Zr94 2.234       .   S
O89         C98 1.256       .   A
Zr90        O96 2.107       .   S
Zr90       O108 2.107       .   S
Zr91        O95 2.107       .   S
Zr91       O106 2.107       .   S
Zr92        O96 2.107       .   S
Zr92       O106 2.107       .   S
Zr93        O95 2.107       .   S
Zr93       O108 2.107       .   S
Zr94        O95 2.107       .   S
Zr94        O96 2.107       .   S
Zr94       O108 2.107       .   S
Zr94       O106 2.107       .   S
C97        C241 1.540   1_566   S
C98        C231 1.540   1_565   S
C99        C351 1.540       .   S
C100       C338 1.540       .   S
C101       C371 1.540       .   S
C102       C358 1.540       .   S
C103       C378 1.540       .   S
C104       C398 1.540       .   S
H105       O106 1.216       .   S
H107       O108 1.216       .   S
O109      Zr145 2.234       .   S
O109       C120 1.256       .   A
O110      Zr144 2.234       .   S
O110       C121 1.256       .   A
O111      Zr117 2.234       .   S
O111       C122 1.256       .   A
O112      Zr117 2.234       .   S
O112       C123 1.256       .   A
O113      Zr147 2.234       .   S
O113       C123 1.256       .   A
O114      Zr146 2.234       .   S
O114       C122 1.256       .   A
O115      Zr117 2.234       .   S
O115       C121 1.256       .   A
O116      Zr117 2.234       .   S
O116       C120 1.256       .   A
Zr117      O118 2.107       .   S
Zr117      O119 2.107       .   S
Zr117      O127 2.107       .   S
Zr117      O125 2.107       .   S
O118      Zr144 2.107       .   S
O118      Zr147 2.107       .   S
O119      Zr145 2.107       .   S
O119      Zr146 2.107       .   S
C120       C261 1.540   1_665   S
C121       C288 1.540   1_666   S
C122       C411 1.540   1_665   S
C123       C401 1.540   1_655   S
H124       O125 1.216       .   S
O125      Zr144 2.107       .   S
O125      Zr146 2.107       .   S
H126       O127 1.216       .   S
O127      Zr145 2.107       .   S
O127      Zr147 2.107       .   S
O128      Zr144 2.234       .   S
O128       C151 1.256       .   A
O129      Zr145 2.234       .   S
O129       C152 1.256       .   A
O130      Zr146 2.234       .   S
O130       C153 1.256       .   A
O131      Zr147 2.234       .   S
O131       C154 1.256       .   A
O132      Zr147 2.234       .   S
O132       C155 1.256       .   A
O133      Zr146 2.234       .   S
O133       C156 1.256       .   A
O134      Zr148 2.234       .   S
O134       C157 1.256       .   A
O135      Zr148 2.234       .   S
O135       C158 1.256       .   A
O136      Zr146 2.234       .   S
O136       C157 1.256       .   A
O137      Zr147 2.234       .   S
O137       C158 1.256       .   A
O138      Zr144 2.234       .   S
O138       C153 1.256       .   A
O139      Zr145 2.234       .   S
O139       C156 1.256       .   A
O140      Zr145 2.234       .   S
O140       C155 1.256       .   A
O141      Zr144 2.234       .   S
O141       C154 1.256       .   A
O142      Zr148 2.234       .   S
O142       C151 1.256       .   A
O143      Zr148 2.234       .   S
O143       C152 1.256       .   A
Zr144      O150 2.107       .   S
Zr144      O162 2.107       .   S
Zr145      O149 2.107       .   S
Zr145      O160 2.107       .   S
Zr146      O150 2.107       .   S
Zr146      O160 2.107       .   S
Zr147      O149 2.107       .   S
Zr147      O162 2.107       .   S
Zr148      O149 2.107       .   S
Zr148      O150 2.107       .   S
Zr148      O162 2.107       .   S
Zr148      O160 2.107       .   S
C151       C278 1.540   1_566   S
C152       C268 1.540   1_565   S
C153       C421 1.540       .   S
C154       C431 1.540       .   S
C155       C441 1.540       .   S
C156       C448 1.540       .   S
C157       C391 1.540   1_565   S
C158       C381 1.540       .   S
H159       O160 1.216       .   S
H161       O162 1.216       .   S
O163      Zr199 2.234       .   S
O163       C174 1.256       .   A
O164      Zr198 2.234       .   S
O164       C175 1.256       .   A
O165      Zr171 2.234       .   S
O165       C176 1.256       .   A
O166      Zr171 2.234       .   S
O166       C177 1.256       .   A
O167      Zr201 2.234       .   S
O167       C177 1.256       .   A
O168      Zr200 2.234       .   S
O168       C176 1.256       .   A
O169      Zr171 2.234       .   S
O169       C175 1.256       .   A
O170      Zr171 2.234       .   S
O170       C174 1.256       .   A
Zr171      O172 2.107       .   S
Zr171      O173 2.107       .   S
Zr171      O181 2.107       .   S
Zr171      O179 2.107       .   S
O172      Zr198 2.107       .   S
O172      Zr201 2.107       .   S
O173      Zr199 2.107       .   S
O173      Zr200 2.107       .   S
C174       C301 1.540   1_556   S
C175       C311 1.540   1_566   S
C176       C361 1.540   1_556   S
C177       C348 1.540       .   S
H178       O179 1.216       .   S
O179      Zr198 2.107       .   S
O179      Zr200 2.107       .   S
H180       O181 1.216       .   S
O181      Zr199 2.107       .   S
O181      Zr201 2.107       .   S
O182      Zr198 2.234       .   S
O182       C205 1.256       .   A
O183      Zr199 2.234       .   S
O183       C206 1.256       .   A
O184      Zr200 2.234       .   S
O184       C207 1.256       .   A
O185      Zr201 2.234       .   S
O185       C208 1.256       .   A
O186      Zr201 2.234       .   S
O186       C209 1.256       .   A
O187      Zr200 2.234       .   S
O187       C210 1.256       .   A
O188      Zr202 2.234       .   S
O188       C211 1.256       .   A
O189      Zr202 2.234       .   S
O189       C212 1.256       .   A
O190      Zr200 2.234       .   S
O190       C211 1.256       .   A
O191      Zr201 2.234       .   S
O191       C212 1.256       .   A
O192      Zr198 2.234       .   S
O192       C207 1.256       .   A
O193      Zr199 2.234       .   S
O193       C210 1.256       .   A
O194      Zr199 2.234       .   S
O194       C209 1.256       .   A
O195      Zr198 2.234       .   S
O195       C208 1.256       .   A
O196      Zr202 2.234       .   S
O196       C205 1.256       .   A
O197      Zr202 2.234       .   S
O197       C206 1.256       .   A
Zr198      O204 2.107       .   S
Zr198      O216 2.107       .   S
Zr199      O203 2.107       .   S
Zr199      O214 2.107       .   S
Zr200      O204 2.107       .   S
Zr200      O214 2.107       .   S
Zr201      O203 2.107       .   S
Zr201      O216 2.107       .   S
Zr202      O203 2.107       .   S
Zr202      O204 2.107       .   S
Zr202      O216 2.107       .   S
Zr202      O214 2.107       .   S
C205       C328 1.540   1_666   S
C206       C318 1.540   1_656   S
C207       C438 1.540   1_556   S
C208       C428 1.540       .   S
C209       C418 1.540   1_545   S
C210       C451 1.540   1_546   S
C211       C368 1.540   1_656   S
C212       C341 1.540   1_655   S
H213       O214 1.216       .   S
H215       O216 1.216       .   S
C447       C448 1.403       .   A
C447       C452 1.387       .   A
C447       H454 1.083       .   S
C448       C449 1.404       .   A
C449       C450 1.387       .   A
C449       F456 1.344       .   S
C450       C451 1.403       .   A
C450       H455 1.083       .   S
C451       C452 1.404       .   A
C452       F453 1.344       .   S
C437       C438 1.403       .   A
C437       C442 1.387       .   A
C437       H444 1.083       .   S
C438       C439 1.404       .   A
C439       C440 1.387       .   A
C439       F446 1.344       .   S
C440       C441 1.403       .   A
C440       H445 1.083       .   S
C441       C442 1.404       .   A
C442       F443 1.344       .   S
C427       C428 1.403       .   A
C427       C432 1.387       .   A
C427       H434 1.083       .   S
C428       C429 1.404       .   A
C429       C430 1.387       .   A
C429       F436 1.344       .   S
C430       C431 1.403       .   A
C430       H435 1.083       .   S
C431       C432 1.404       .   A
C432       F433 1.344       .   S
C417       C418 1.403       .   A
C417       C422 1.387       .   A
C417       H424 1.083       .   S
C418       C419 1.404       .   A
C419       C420 1.387       .   A
C419       F426 1.344       .   S
C420       C421 1.403       .   A
C420       H425 1.083       .   S
C421       C422 1.404       .   A
C422       F423 1.344       .   S
C407       C408 1.403       .   A
C407       C412 1.387       .   A
C407       H414 1.083       .   S
C408       C409 1.404       .   A
C409       C410 1.387       .   A
C409       F416 1.344       .   S
C410       C411 1.403       .   A
C410       H415 1.083       .   S
C411       C412 1.404       .   A
C412       F413 1.344       .   S
C397       C398 1.403       .   A
C397       C402 1.387       .   A
C397       H404 1.083       .   S
C398       C399 1.404       .   A
C399       C400 1.387       .   A
C399       F406 1.344       .   S
C400       C401 1.403       .   A
C400       H405 1.083       .   S
C401       C402 1.404       .   A
C402       F403 1.344       .   S
C387       C388 1.403       .   A
C387       C392 1.387       .   A
C387       H394 1.083       .   S
C388       C389 1.404       .   A
C389       C390 1.387       .   A
C389       F396 1.344       .   S
C390       C391 1.403       .   A
C390       H395 1.083       .   S
C391       C392 1.404       .   A
C392       F393 1.344       .   S
C377       C378 1.403       .   A
C377       C382 1.387       .   A
C377       H384 1.083       .   S
C378       C379 1.404       .   A
C379       C380 1.387       .   A
C379       F386 1.344       .   S
C380       C381 1.403       .   A
C380       H385 1.083       .   S
C381       C382 1.404       .   A
C382       F383 1.344       .   S
C367       C368 1.403       .   A
C367       C372 1.387       .   A
C367       H374 1.083       .   S
C368       C369 1.404       .   A
C369       C370 1.387       .   A
C369       F376 1.344       .   S
C370       C371 1.403       .   A
C370       H375 1.083       .   S
C371       C372 1.404       .   A
C372       F373 1.344       .   S
C357       C358 1.403       .   A
C357       C362 1.387       .   A
C357       H364 1.083       .   S
C358       C359 1.404       .   A
C359       C360 1.387       .   A
C359       F366 1.344       .   S
C360       C361 1.403       .   A
C360       H365 1.083       .   S
C361       C362 1.404       .   A
C362       F363 1.344       .   S
C347       C348 1.403       .   A
C347       C352 1.387       .   A
C347       H354 1.083       .   S
C348       C349 1.404       .   A
C349       C350 1.387       .   A
C349       F356 1.344       .   S
C350       C351 1.403       .   A
C350       H355 1.083       .   S
C351       C352 1.404       .   A
C352       F353 1.344       .   S
C337       C338 1.403       .   A
C337       C342 1.387       .   A
C337       H344 1.083       .   S
C338       C339 1.404       .   A
C339       C340 1.387       .   A
C339       F346 1.344       .   S
C340       C341 1.403       .   A
C340       H345 1.083       .   S
C341       C342 1.404       .   A
C342       F343 1.344       .   S
C327       C328 1.403       .   A
C327       C332 1.387       .   A
C327       H334 1.083       .   S
C328       C329 1.404       .   A
C329       C330 1.387       .   A
C329       F336 1.344       .   S
C330       C331 1.403       .   A
C330       H335 1.083       .   S
C331       C332 1.404       .   A
C332       F333 1.344       .   S
C317       C318 1.403       .   A
C317       C322 1.387       .   A
C317       H324 1.083       .   S
C318       C319 1.404       .   A
C319       C320 1.387       .   A
C319       F326 1.344       .   S
C320       C321 1.403       .   A
C320       H325 1.083       .   S
C321       C322 1.404       .   A
C322       F323 1.344       .   S
C307       C308 1.403       .   A
C307       C312 1.387       .   A
C307       H314 1.083       .   S
C308       C309 1.404       .   A
C309       C310 1.387       .   A
C309       F316 1.344       .   S
C310       C311 1.403       .   A
C310       H315 1.083       .   S
C311       C312 1.404       .   A
C312       F313 1.344       .   S
C297       C298 1.403       .   A
C297       C302 1.387       .   A
C297       H304 1.083       .   S
C298       C299 1.404       .   A
C299       C300 1.387       .   A
C299       F306 1.344       .   S
C300       C301 1.403       .   A
C300       H305 1.083       .   S
C301       C302 1.404       .   A
C302       F303 1.344       .   S
C287       C288 1.403       .   A
C287       C292 1.387       .   A
C287       H294 1.083       .   S
C288       C289 1.404       .   A
C289       C290 1.387       .   A
C289       F296 1.344       .   S
C290       C291 1.403       .   A
C290       H295 1.083       .   S
C291       C292 1.404       .   A
C292       F293 1.344       .   S
C277       C278 1.403       .   A
C277       C282 1.387       .   A
C277       H284 1.083       .   S
C278       C279 1.404       .   A
C279       C280 1.387       .   A
C279       F286 1.344       .   S
C280       C281 1.403       .   A
C280       H285 1.083       .   S
C281       C282 1.404       .   A
C282       F283 1.344       .   S
C267       C268 1.403       .   A
C267       C272 1.387       .   A
C267       H274 1.083       .   S
C268       C269 1.404       .   A
C269       C270 1.387       .   A
C269       F276 1.344       .   S
C270       C271 1.403       .   A
C270       H275 1.083       .   S
C271       C272 1.404       .   A
C272       F273 1.344       .   S
C257       C258 1.403       .   A
C257       C262 1.387       .   A
C257       H264 1.083       .   S
C258       C259 1.404       .   A
C259       C260 1.387       .   A
C259       F266 1.344       .   S
C260       C261 1.403       .   A
C260       H265 1.083       .   S
C261       C262 1.404       .   A
C262       F263 1.344       .   S
C247       C248 1.403       .   A
C247       C252 1.387       .   A
C247       H254 1.083       .   S
C248       C249 1.404       .   A
C249       C250 1.387       .   A
C249       F256 1.344       .   S
C250       C251 1.403       .   A
C250       H255 1.083       .   S
C251       C252 1.404       .   A
C252       F253 1.344       .   S
C237       C238 1.403       .   A
C237       C242 1.387       .   A
C237       H244 1.083       .   S
C238       C239 1.404       .   A
C239       C240 1.387       .   A
C239       F246 1.344       .   S
C240       C241 1.403       .   A
C240       H245 1.083       .   S
C241       C242 1.404       .   A
C242       F243 1.344       .   S
C227       C228 1.403       .   A
C227       C232 1.387       .   A
C227       H234 1.083       .   S
C228       C229 1.404       .   A
C229       C230 1.387       .   A
C229       F236 1.344       .   S
C230       C231 1.403       .   A
C230       H235 1.083       .   S
C231       C232 1.404       .   A
C232       F233 1.344       .   S
C217       C218 1.403       .   A
C217       C222 1.387       .   A
C217       H224 1.083       .   S
C218       C219 1.404       .   A
C219       C220 1.387       .   A
C219       F226 1.344       .   S
C220       C221 1.403       .   A
C220       H225 1.083       .   S
C221       C222 1.404       .   A
C222       F223 1.344       .   S
