data_rna_v1-6c_Zr_1_Ch_v2-0c_3-1B_2F_Ch_BOND_CHECK_FAILED
_audit_creation_date              2024-09-24
_audit_creation_method            'tobacco_3.0'
_symmetry_space_group_name_H-M    'P1'
_symmetry_Int_Tables_number       1
_symmetry_cell_setting            triclinic
loop_
_symmetry_equiv_pos_as_xyz
  x,y,z
_cell_length_a                    50.32893324621915
_cell_length_b                    28.163278815521526
_cell_length_c                    23.28802672633753
_cell_angle_alpha                 90.0027801005165
_cell_angle_beta                  90.01133329772247
_cell_angle_gamma                 90.00121265787611
loop_
_atom_site_label
_atom_site_type_symbol
_atom_site_fract_x
_atom_site_fract_y
_atom_site_fract_z
O1         O    0.8585250118    0.7766344447    0.1422714903
O2         O    0.8077505182    0.7499919525    0.1912788867
C3         C    0.8349607126    0.7499984215    0.1650096852
C4         C    0.8585244700    0.7233736028    0.1422496229
O5         O    0.6475811853    0.7233159291    0.3316995626
O6         O    0.6982774021    0.7499552899    0.2823128058
C7         C    0.6711088429    0.7499504994    0.3087824443
C8         C    0.6475805561    0.7765767727    0.3317107400
O9         O    0.8596456205    0.2765973530    0.8287503157
O10        O    0.8088497547    0.2499543128    0.7798003105
C11        C    0.8360712055    0.2499610759    0.8060382804
C12        C    0.8596443433    0.2233365124    0.8287704088
O13        O    0.6474534484    0.2765881717    0.6452791936
O14        O    0.6983224453    0.2499623751    0.6938806829
C15        C    0.6710609747    0.2499598966    0.6678375692
C16        C    0.6474516340    0.2233273288    0.6452892720
Zr17      Zr    0.5032786106    0.4306712534    0.5540148767
O18        O    0.5053361146    0.4239074907    0.6444987694
O19        O    0.5032930697    0.3581515557    0.5152099190
O20        O    0.4640777431    0.4014495752    0.5817266795
O21        O    0.5734007995    0.4448862149    0.5406399046
O22        O    0.4331703312    0.4448769753    0.5403645091
O23        O    0.5424684328    0.4014460196    0.5818800495
O24        O    0.5033254883    0.3674276107    0.4213871040
O25        O    0.4802307516    0.4420406198    0.4797249332
O26        O    0.5263809345    0.4420385956    0.4798130191
O27        O    0.4802045065    0.4930106220    0.5581203483
O28        O    0.5263533115    0.4930145848    0.5582119647
Zr29      Zr    0.5033248687    0.5692086712    0.4222785969
Zr30      Zr    0.4539924339    0.4999390772    0.4880506694
Zr31      Zr    0.5526138530    0.4999445620    0.4882387116
Zr32      Zr    0.5033298822    0.4454726501    0.4043690347
O33        O    0.5773670713    0.5361930085    0.5467765470
O34        O    0.4693007036    0.4185843840    0.3615236698
O35        O    0.5264031583    0.5068670302    0.4181655021
O36        O    0.4802529754    0.5068690543    0.4180774162
O37        O    0.4802253524    0.5578450435    0.4964763619
O38        O    0.5263755353    0.5578430194    0.4965644478
C39        C    0.5033123677    0.3451582164    0.4657471108
C40        C    0.5649575234    0.4132995862    0.5706551599
C41        C    0.4415925751    0.4132925000    0.5704165871
O42        O    0.4283737036    0.4661402588    0.4287117766
O43        O    0.4332054874    0.5549974242    0.4356494763
O44        O    0.4641378541    0.5984376196    0.3944093315
C45        C    0.4416515710    0.5865877674    0.4056301284
O46        O    0.5040697623    0.5277650016    0.6571393816
Zr47      Zr    0.5032764047    0.5544109890    0.5719203462
O48        O    0.5033132172    0.6417320834    0.4610794620
O49        O    0.4277834842    0.5390092573    0.5413672586
O50        O    0.4679776363    0.5816959692    0.6086028366
O51        O    0.5359042305    0.5821671470    0.6192289619
O52        O    0.5032807985    0.6324560284    0.5549022770
C53        C    0.5032939192    0.6547254227    0.5105422701
O54        O    0.5045218418    0.5770616206    0.3316849935
O55        O    0.5790374463    0.4668863247    0.4296794920
O56        O    0.5425285438    0.5984340639    0.3945627015
O57        O    0.5734359557    0.5550066638    0.4359248719
O58        O    0.5377132185    0.4175943799    0.3645433571
O59        O    0.5077426042    0.4670944337    0.3176841669
C60        C    0.5650137118    0.5865911391    0.4058727939
H61        H    0.5380090635    0.4142595335    0.4742912409
H62        H    0.4692395316    0.5091917297    0.3830876850
H63        H    0.5379976466    0.5856298184    0.5021354561
H64        H    0.4691989734    0.4903507589    0.5930728578
H65        H    0.4761879164    0.3968884351    0.3315206086
H66        H    0.4096983061    0.5298289429    0.5287575469
H67        H    0.4733582420    0.6082660744    0.6339287374
H68        H    0.5316662457    0.3913924541    0.3392828730
H69        H    0.5970900503    0.4744132840    0.4439903173
H70        H    0.5957570884    0.5298025945    0.5337562558
H71        H    0.5284715578    0.6071360246    0.6445496123
H72        H    0.4904118294    0.4794183604    0.3043012519
H73        H    0.5189823301    0.5560843685    0.3180316638
H74        H    0.5026729619    0.3896896904    0.6525349522
H75        H    0.4981176224    0.5531870136    0.6835343213
H76        H    0.5774333904    0.4321887969    0.4351752545
H77        H    0.4882188063    0.5622278214    0.3161652314
H78        H    0.4271008237    0.4323815711    0.4400451594
H79        H    0.4603190080    0.3971785996    0.3890195685
H80        H    0.5472711044    0.6000209966    0.5922102383
H81        H    0.4292383573    0.5257467741    0.5805649957
H82        H    0.4893427583    0.4395642927    0.6603418373
Zr83      Zr    0.5032792515    1.0692145553    0.5541206402
O84        O    0.5011616279    1.0759850344    0.6445963289
O85        O    0.5032911352    1.1417313938    0.5153163706
O86        O    0.5424618553    1.0984373535    0.5819879582
O87        O    0.4331659441    1.0550002576    0.5404678005
O88        O    0.5733964109    1.0550061784    0.5407478487
O89        O    0.4640711669    1.0984427645    0.5818308279
O90        O    0.5033210407    1.1324484255    0.4214934619
O91        O    0.5263763992    1.0578391722    0.4799219767
O92        O    0.4802262186    1.0578422885    0.4798272648
O93        O    0.5263501332    1.0068749464    0.5583169046
O94        O    0.4802013281    1.0068720760    0.5582257286
Zr95      Zr    0.5033195727    0.9306674307    0.4223830244
Zr96      Zr    0.5526087168    0.9999407112    0.4883510758
Zr97      Zr    0.4539873025    0.9999375601    0.4881484850
Zr98      Zr    0.5033273858    1.0544021321    0.4044746505
O99        O    0.4291949202    0.9636940095    0.5465878506
O100       O    0.5373852113    1.0812864404    0.3617643866
O101       O    0.4802445105    0.9930093115    0.4181791203
O102       O    0.5263946912    0.9930061952    0.4182738322
O103       O    0.5263698007    0.9420359827    0.4966722961
O104       O    0.4802196200    0.9420390990    0.4965775842
C105       C    0.5033048266    1.1547210885    0.4658536755
C106       C    0.4415894827    1.0865888996    0.5705167618
C107       C    0.5649544272    1.0865930664    0.5707668296
O108       O    0.5782671244    1.0337345541    0.4291140588
O109       O    0.5734300751    0.9448780136    0.4360317604
O110       O    0.5425248524    0.9014355067    0.3946687330
C111       C    0.5650037316    0.9132856568    0.4059786952
O112       O    0.5024188030    0.9721284251    0.6572409461
Zr113     Zr    0.5032686334    0.9454761391    0.5720249104
O114       O    0.5033048840    0.8581468774    0.4611831903
O115       O    0.5787818866    0.9608738435    0.5417710327
O116       O    0.5385427591    0.9181930317    0.6088469072
O117       O    0.4706091844    0.9177242348    0.6192039614
O118       O    0.5032749785    0.8674298457    0.5550060989
C119       C    0.5032911926    0.8451571827    0.5106458854
O120       O    0.5021827883    0.9228078334    0.3317847240
O121       O    0.4276029312    1.0329921036    0.4294849970
O122       O    0.4641341640    0.9014409177    0.3945116026
O123       O    0.4331996084    0.9448720928    0.4357517121
O124       O    0.4689707857    1.0822782763    0.3645131022
O125       O    0.4989721555    1.0327740644    0.3177722113
C126       C    0.4416415920    0.9132852048    0.4057327313
H127       H    0.4686019827    1.0856212172    0.4742597016
H128       H    0.5374313716    0.9906806824    0.3833277484
H129       H    0.4685936134    0.9142529838    0.5021022848
H130       H    0.5373324278    1.0095371264    0.5933129858
H131       H    0.5305181205    1.1029803404    0.3317342929
H132       H    0.5968754944    0.9700528033    0.5292330597
H133       H    0.5331451217    0.8916249194    0.6341512081
H134       H    0.4750347430    1.1084781984    0.3392768538
H135       H    0.4095407784    1.0254666235    0.4437242262
H136       H    0.4108136332    0.9700838966    0.5334947960
H137       H    0.4780248239    0.8927570483    0.6445537797
H138       H    0.5163117159    1.0204487438    0.3044578420
H139       H    0.4877315540    0.9437844195    0.3180743361
H140       H    0.5038196864    1.1102033643    0.6526433772
H141       H    0.5083531939    0.9467082182    0.6836591837
H142       H    0.4292035873    1.0676899987    0.4349874380
H143       H    0.5184962330    0.9376401054    0.3163296996
H144       H    0.5795327160    1.0674940470    0.4404527917
H145       H    0.5463487686    1.1026940398    0.3892960300
H146       H    0.4592601609    0.8998686615    0.5921400791
H147       H    0.5773010469    0.9741392494    0.5809630825
H148       H    0.5171443114    1.0603290236    0.6605025747
O149       O    0.1480525908    0.2233967809    0.8338171156
O150       O    0.1988190434    0.2500151168    0.7847516732
C151       C    0.1716128611    0.2500215927    0.8110402691
C152       C    0.1480520236    0.2766576209    0.8337952708
O153       O    0.3589753177    0.2765759783    0.6443362181
O154       O    0.3082686552    0.2499571900    0.6936891119
C155       C    0.3354422865    0.2499509558    0.6672437942
C156       C    0.3589739848    0.2233151357    0.6443480802
O157       O    0.1470190872    0.7766387712    0.1471560888
O158       O    0.1978181622    0.7499962276    0.1960847372
C159       C    0.1705944572    0.7500027242    0.1698576981
C160       C    0.1470183703    0.7233779294    0.1471340758
O161       O    0.3591679035    0.7233149331    0.3308544855
O162       O    0.3083128146    0.7499529621    0.2821948374
C163       C    0.3355666474    0.7499488853    0.3082752733
C164       C    0.3591690296    0.7765757766    0.3308673760
Zr165     Zr    0.0035107330    0.0693155956    0.9223717530
O166       O    0.0058847727    0.0760836532    0.8319264171
O167       O    0.0033877711    0.1418335817    0.9611804342
O168       O   -0.0355925840    0.0985328050    0.8939882199
O169       O    0.0735843000    0.0551102264    0.9369518375
O170       O   -0.0666429095    0.0550990899    0.9348146136
O171       O    0.0427962818    0.0985477512    0.8951835366
O172       O    0.0030919577    0.1325533878    1.0550003873
O173       O   -0.0197962412    0.0579396014    0.9962622014
O174       O    0.0263528601    0.0579483313    0.9969681146
O175       O   -0.0195469458    0.0069730575    0.9178654322
O176       O    0.0266007902    0.0069758005    0.9185677909
Zr177     Zr    0.0030988578   -0.0692276333    1.0540959904
Zr178     Zr   -0.0460033618    0.0000377015    0.9874815885
Zr179     Zr    0.0526157458    0.0000465466    0.9889902955
Zr180     Zr    0.0030384800    0.0545075975    1.0720130223
O181       O    0.0775739247   -0.0361957201    0.9308777717
O182       O   -0.0311402433    0.0813890297    1.1142733595
O183       O    0.0261606951   -0.0068828226    1.0586100062
O184       O   -0.0199884062   -0.0068915525    1.0579040931
O185       O   -0.0197404761   -0.0578640833    0.9795037693
O186       O    0.0264086252   -0.0578553534    0.9802096825
C187       C    0.0032336373    0.1548247393    1.0106429167
C188       C    0.0652456601    0.0866969546    0.9067942454
C189       C   -0.0581164084    0.0866861155    0.9049103646
O190       O   -0.0718297773    0.0338301789    1.0463800978
O191       O   -0.0669719160   -0.0550259784    1.0395200464
O192       O   -0.0361838978   -0.0984635031    1.0812883473
C193       C   -0.0586304828   -0.0866164208    1.0696817791
O194       O    0.0046649721   -0.0277734833    0.8192577484
Zr195     Zr    0.0035739040   -0.0544233495    0.9044588616
O196       O    0.0032246129   -0.1417493336    1.0152914498
O197       O   -0.0720240319   -0.0390339300    0.9337131884
O198       O   -0.0315947969   -0.0817118357    0.8671684271
O199       O    0.0363669595   -0.0821726800    0.8577112428
O200       O    0.0035204263   -0.1324691397    0.9214714966
C201       C    0.0033787467   -0.1547404912    0.9658289673
O202       O    0.0039788368   -0.0770844098    1.1447069560
O203       O    0.0788328320    0.0331060349    1.0480044760
O204       O    0.0422049680   -0.0984485569    1.0824836641
O205       O    0.0732552935   -0.0550148419    1.0416572703
O206       O    0.0372807604    0.0823891019    1.1124308377
O207       O    0.0071480940    0.0328826264    1.1587698142
C208       C    0.0647287924   -0.0866018675    1.0715615194
H209       H    0.0379607040    0.0857288382    1.0026915627
H210       H   -0.0311239517   -0.0092173724    1.0927031397
H211       H    0.0380504940   -0.0856402187    0.9748370168
H212       H   -0.0304298517    0.0096328662    0.8827247996
H213       H   -0.0243587386    0.1030846537    1.1443953982
H214       H   -0.0901530067   -0.0298567988    0.9460119594
H215       H   -0.0261251188   -0.1082800410    0.8419341590
H216       H    0.0311449724    0.1085890340    1.1375882030
H217       H    0.0969351525    0.0255823291    1.0340041880
H218       H    0.0959176702   -0.0298032106    0.9442144733
H219       H    0.0290236917   -0.1071415187    0.8322618800
H220       H   -0.0102287380    0.0205555919    1.1718533676
H221       H    0.0183906379   -0.0561056608    1.1586100048
H222       H    0.0032490855    0.1103014217    0.8238468488
H223       H   -0.0011940370   -0.0531951940    0.7927595716
H224       H    0.0772473063    0.0678035724    1.0424835035
H225       H   -0.0123783592   -0.0622536635    1.1599467130
H226       H   -0.0730636815    0.0675891822    1.0350273184
H227       H   -0.0400258837    0.1027947242    1.0866251329
H228       H    0.0476392994   -0.1000260722    0.8849235722
H229       H   -0.0704322774   -0.0257695045    0.8945425115
H230       H   -0.0100523008    0.0604252284    0.8158076641
Zr231     Zr    0.0030966433    0.5692975555    1.0538966913
O232       O    0.0007228208    0.5760722609    1.1443421011
O233       O    0.0032184587    0.6418125813    1.0150883881
O234       O    0.0421996499    0.5985216425    1.0822797480
O235       O   -0.0669767754    0.5550826428    1.0393176604
O236       O    0.0732504412    0.5550885314    1.0414526267
O237       O   -0.0361892200    0.5985270714    1.0810856934
O238       O    0.0035140783    0.6325252310    0.9212683815
O239       O    0.0264035216    0.5579186995    0.9800058079
O240       O   -0.0197455822    0.5579218263    0.9793006377
O241       O    0.0261552081    0.5069581354    1.0584023141
O242       O   -0.0199925303    0.5069552756    1.0577006984
Zr243     Zr    0.0035099992    0.4307442786    0.9221717209
Zr244     Zr    0.0526114809    0.5000206239    0.9887856955
Zr245     Zr   -0.0460076317    0.5000174952    0.9872785762
Zr246     Zr    0.0035685873    0.5544781431    0.9042553365
O247       O   -0.0709651041    0.4637766822    1.0453913119
O248       O    0.0377467895    0.5813604454    0.8619945899
O249       O   -0.0195527243    0.4930859702    0.9176584031
O250       O    0.0265963795    0.4930828435    0.9183635732
O251       O    0.0263494314    0.4421162929    0.9967636339
O252       O   -0.0197996724    0.4421194196    0.9960584638
C253       C    0.0033722406    0.6547999658    0.9656259712
C254       C   -0.0586384727    0.5866726854    1.0694752839
C255       C    0.0647236021    0.5866768241    1.0713571786
O256       O    0.0784372215    0.5338116917    0.9298869474
O257       O    0.0735806247    0.4449554763    0.9367466112
O258       O    0.0427930692    0.4015110477    0.8949785783
C259       C    0.0652395288    0.4133617187    0.9065848472
O260       O    0.0019441154    0.4722162423    1.1570102057
Zr261     Zr    0.0030352619    0.4455599760    1.0718089352
O262       O    0.0033853906    0.3582255378    0.9609758835
O263       O    0.0786328820    0.4609562430    1.0425534720
O264       O    0.0382044724    0.4182785772    1.1090986605
O265       O   -0.0297572449    0.4178102859    1.1185569366
O266       O    0.0030897710    0.3675128881    1.0547958902
C267       C    0.0032316086    0.3452381534    1.0104383005
O268       O    0.0026298176    0.4228804503    0.8315607282
O269       O   -0.0722253829    0.5330693072    0.9282649909
O270       O   -0.0355958007    0.4015164766    0.8937845236
O271       O   -0.0666465920    0.4449495877    0.9346116449
O272       O   -0.0306742217    0.5823524318    0.8638382184
O273       O   -0.0005410237    0.5328460273    0.8174984973
C274       C   -0.0581197529    0.4133612950    0.9047070930
H275       H   -0.0313538337    0.5857004986    0.9735775221
H276       H    0.0377318375    0.4907556949    0.8835643351
H277       H   -0.0314411346    0.4143335663    1.0014311713
H278       H    0.0370381979    0.5096219464    1.0935427855
H279       H    0.0309648780    0.6030529449    0.8318727740
H280       H    0.0967616861    0.4701346113    1.0302544571
H281       H    0.0327352523    0.3917116486    1.1343328775
H282       H   -0.0245388863    0.6085511731    0.8386808917
H283       H   -0.0903275500    0.5255444980    0.9422655310
H284       H   -0.0893089848    0.4701659637    1.0320549391
H285       H   -0.0224135407    0.3928442812    1.1440060503
H286       H    0.0168359353    0.5205200793    0.8044145995
H287       H   -0.0117823244    0.4438564006    0.8176580212
H288       H    0.0033580580    0.6102909657    1.1524218063
H289       H    0.0078035708    0.4467972675    1.1835081550
H290       H   -0.0706403227    0.5677674586    0.9337861197
H291       H    0.0189867539    0.4377119951    0.8163207855
H292       H    0.0796706935    0.5675717137    0.9412398838
H293       H    0.0466322262    0.6027693277    0.8896427857
H294       H   -0.0410294292    0.3999534524    1.0913446950
H295       H    0.0770410772    0.4742234798    1.0817242440
H296       H    0.0166601685    0.5604169880    1.1604605154
C527       C    0.0074768134    0.2748527128    0.9596661408
C528       C    0.0032320851    0.3005122163    1.0104863625
C529       C   -0.0009873625    0.2744501168    1.0610901759
C530       C   -0.0010076166    0.2252095121    1.0614155204
C531       C    0.0032331608    0.1995506763    1.0105948546
C532       C    0.0074526084    0.2256127758    0.9599910413
F533       F    0.0116543728    0.2034546626    0.9096909573
H534       H    0.0108236848    0.2933193245    0.9195193925
H535       H   -0.0043584389    0.2067435682    1.1015618247
F536       F   -0.0051891269    0.2966082300    1.1113902598
C517       C   -0.0201417007   -0.2251146273    0.9750464432
C518       C    0.0033772181   -0.1994894880    0.9657812728
C519       C    0.0267678577   -0.2255857700    0.9565065845
C520       C    0.0268914893   -0.2748265608    0.9564003460
C521       C    0.0033737693   -0.3004510374    0.9656736657
C522       C   -0.0200168703   -0.2743547554    0.9749483540
F523       F   -0.0432936393   -0.2964788571    0.9841198836
H524       H   -0.0386996317   -0.2066208966    0.9824043887
H525       H    0.0454506190   -0.2933196288    0.9490505498
F526       F    0.0500446267   -0.2034616684    0.9473350548
C507       C    0.1021382024    0.6126791058    0.1390041065
C508       C    0.0861189967    0.6222170432    0.0910580254
C509       C    0.0903706987    0.6652295794    0.0619516532
C510       C    0.1096067843    0.6973723834    0.0794831824
C511       C    0.1256229756    0.6878377102    0.1274332290
C512       C    0.1213712737    0.6448251741    0.1565396012
F513       F    0.1359594248    0.6332807968    0.2028246422
H514       H    0.0996294365    0.5799908758    0.1628946050
H515       H    0.1121125359    0.7300638777    0.0555966495
F516       F    0.0757825476    0.6767739566    0.0156666123
C497       C    0.1127467448    0.8833391966    0.0746443969
C498       C    0.0861225955    0.8778434798    0.0912145701
C499       C    0.0798245860    0.8388368434    0.1262401195
C500       C    0.0990024127    0.8067016301    0.1440798167
C501       C    0.1256252841    0.8121934239    0.1275030381
C502       C    0.1319232936    0.8512000603    0.0924774887
F503       F    0.1570068318    0.8587449334    0.0749158079
H504       H    0.1186084613    0.9128483620    0.0476484790
H505       H    0.0931394182    0.7771885417    0.1710691292
F506       F    0.0547410478    0.8312919703    0.1438018003
C487       C    0.2319261135    0.7450085058    0.2772159439
C488       C    0.2264904822    0.7499850006    0.2184294960
C489       C    0.2482398557    0.7549206294    0.1811208018
C490       C    0.2742052006    0.7549336142    0.2010639858
C491       C    0.2796404945    0.7499641891    0.2598500787
C492       C    0.2578911210    0.7450285602    0.2971587729
F493       F    0.2615666432    0.7401025708    0.3540116075
H494       H    0.2158341551    0.7410936625    0.3077237195
H495       H    0.2902968217    0.7588555272    0.1705558551
F496       F    0.2445643336    0.7598466189    0.1242679672
C477       C    0.0964875401    0.3777944891    0.8312037494
C478       C    0.0867648612    0.3778284195    0.8876647575
C479       C    0.0974111389    0.3443285312    0.9259674537
C480       C    0.1168070550    0.3122293412    0.9091773804
C481       C    0.1265266911    0.3121909201    0.8527153605
C482       C    0.1158804134    0.3456908085    0.8144126643
F483       F    0.1242286398    0.3477627103    0.7596541003
H484       H    0.0889109637    0.4029347562    0.8000487633
H485       H    0.1243805886    0.2870845834    0.9403313547
F486       F    0.0890629125    0.3422566294    0.9807260177
C467       C    0.1127860924    0.1070981391    0.8762495367
C468       C    0.0867728001    0.1222345150    0.8878225376
C469       C    0.0812092501    0.1708185718    0.8814296727
C470       C    0.1005117839    0.2029942810    0.8643534234
C471       C    0.1265254508    0.1878592204    0.8527888234
C472       C    0.1320890008    0.1392751636    0.8591816883
F473       F    0.1565596264    0.1221902845    0.8488495187
H474       H    0.1180709230    0.0699891336    0.8805561750
H475       H    0.0952273279    0.2401046019    0.8600551860
F476       F    0.0567386245    0.1879034510    0.8917618423
C457       C    0.2413996273    0.2925186960    0.7546809513
C458       C    0.2271834532    0.2500001048    0.7611523587
C459       C    0.2399807186    0.2076949874    0.7451817931
C460       C    0.2656898417    0.2074538223    0.7237675190
C461       C    0.2799042454    0.2499722020    0.7172884263
C462       C    0.2671069800    0.2922773193    0.7332589920
F463       F    0.2794866436    0.3343588409    0.7282622384
H464       H    0.2324005529    0.3260828876    0.7663896408
H465       H    0.2746871457    0.1738894192    0.7120511443
F466       F    0.2276010550    0.1656134659    0.7501785467
C447       C    0.3999747584    0.8915013881    0.3482809217
C448       C    0.4201995301    0.8777420867    0.3862684690
C449       C    0.4200901582    0.8305269915    0.4056878138
C450       C    0.4008376349    0.7983579282    0.3883117672
C451       C    0.3806110915    0.8121188947    0.3503316382
C452       C    0.3807204634    0.8593339898    0.3309122934
F453       F    0.3619737445    0.8750553302    0.2944668436
H454       H    0.3991941126    0.9275249416    0.3320881790
H455       H    0.4016165090    0.7623360398    0.4045119282
F456       F    0.4388368771    0.8148056511    0.4421332636
C437       C    0.3982219660    1.1679763841    0.6649284178
C438       C    0.3804495578    1.1877736897    0.6251559201
C439       C    0.3830368000    1.1739231582    0.5674866229
C440       C    0.4023394334    1.1419218475    0.5499385487
C441       C    0.4201139098    1.1221303456    0.5897089219
C442       C    0.4175266675    1.1359808771    0.6473782191
F443       F    0.4338437921    1.1184911058    0.6878779868
H444       H    0.3970383983    1.1775289758    0.7099063999
H445       H    0.4035250692    1.1323750595    0.5049584421
F446       F    0.3667196754    1.1914129295    0.5269868552
C427       C    0.3791812984    0.6397313397    0.3346141519
C428       C    0.3806139428    0.6877653964    0.3502964117
C429       C    0.4022683606    0.7020113321    0.3842290685
C430       C    0.4216402686    0.6701716376    0.4018631695
C431       C    0.4202055317    0.6221373041    0.3861882022
C432       C    0.3985511139    0.6078913684    0.3522555454
F433       F    0.3958642008    0.5624564669    0.3355825438
H434       H    0.3628673499    0.6269912275    0.3084796674
H435       H    0.4379521247    0.6829114730    0.4280049464
F436       F    0.4049552738    0.7474462336    0.4009020701
C417       C    0.3861140165    0.3527079074    0.6578438904
C418       C    0.3804529423    0.3121175373    0.6251196750
C419       C    0.3950879917    0.3052769389    0.5744421777
C420       C    0.4144567465    0.3371579057    0.5569139051
C421       C    0.4201149505    0.3777509410    0.5896331301
C422       C    0.4054799011    0.3845915394    0.6403106275
F423       F    0.4098115295    0.4226587833    0.6738365677
H424       H    0.3753706029    0.3595732660    0.6972730947
H425       H    0.4251972900    0.3302952123    0.5174797105
F426       F    0.3907563634    0.2672096950    0.5409162375
C407       C    0.5043635557    0.7250981529    0.4589625193
C408       C    0.5032932787    0.6994605146    0.5105666108
C409       C    0.5022260127    0.7255443812    0.5619217654
C410       C    0.5022176580    0.7747851210    0.5622241750
C411       C    0.5032918331    0.8004220908    0.5106215447
C412       C    0.5043590992    0.7743382242    0.4592663901
F413       F    0.5054176099    0.7964746964    0.4081918439
H414       H    0.5052111395    0.7066142718    0.4182188985
H415       H    0.5013739723    0.7932683335    0.6029692570
F416       F    0.5011675019    0.7034079090    0.6129963116
C397       C    0.5106302905    0.2250578387    0.4166302554
C398       C    0.5033065982    0.1994588669    0.4658286411
C399       C    0.4960223359    0.2255811897    0.5147329354
C400       C    0.4959833212    0.2748221334    0.5149669021
C401       C    0.5033105961    0.3004204381    0.4657721451
C402       C    0.5105948584    0.2742981153    0.4168678509
F403       F    0.5178422538    0.2963963192    0.3681773632
H404       H    0.5164104851    0.2065434468    0.3778291762
H405       H    0.4902067092    0.2933358582    0.5537716101
F406       F    0.4887749405    0.2034829857    0.5634234231
C387       C    0.6088165186    0.1666259385    0.6658466582
C388       C    0.6260065748    0.1877834060    0.6259172442
C389       C    0.6228668051    0.1752895450    0.5679213583
C390       C    0.6035865896    0.1432992049    0.5502092107
C391       C    0.5863994863    0.1221369892    0.5901388574
C392       C    0.5895392561    0.1346308502    0.6481347433
F393       F    0.5737956344    0.1157971578    0.6887999604
H394       H    0.6104408067    0.1750997879    0.7110770101
H395       H    0.6019652545    0.1348206073    0.5049790915
F396       F    0.6386104268    0.1941232374    0.5272561412
C377       C    0.6304078904    0.3612477235    0.6291723768
C378       C    0.6260072056    0.3121286688    0.6258793852
C379       C    0.6013964201    0.2968054060    0.6042964134
C380       C    0.5820046073    0.3286410826    0.5867541496
C381       C    0.5864037661    0.3777590892    0.5900549683
C382       C    0.6110145517    0.3930823519    0.6116379401
F383       F    0.6166400404    0.4395912672    0.6160440888
H384       H    0.6490663728    0.3748423492    0.6455133924
H385       H    0.5633445990    0.3150454088    0.5704209611
F386       F    0.5957709314    0.2502964908    0.5998902646
C367       C    0.9243490669    0.1503758554    0.8361217306
C368       C    0.9205030707    0.1222124212    0.8851155348
C369       C    0.8965063935    0.1277131977    0.9151695671
C370       C    0.8771772529    0.1596424629    0.8975531757
C371       C    0.8810248643    0.1878102067    0.8485652385
C372       C    0.9050215415    0.1823094302    0.8185112063
F373       F    0.9100934062    0.2080785649    0.7711928640
H374       H    0.9425237418    0.1474491536    0.8114776619
H375       H    0.8590041931    0.1625734742    0.9222031115
F376       F    0.8914345287    0.1019440630    0.9624879093
C357       C    0.9081139479    0.3028667807    0.8397558851
C358       C    0.8810263246    0.3121554810    0.8484988018
C359       C    0.8742518400    0.3549371484    0.8758192864
C360       C    0.8934123605    0.3870949604    0.8936938523
C361       C    0.9204995430    0.3778031670    0.8849586069
C362       C    0.9272740277    0.3350214997    0.8576381224
F363       F    0.9528170413    0.3237242093    0.8478146888
H364       H    0.9143532360    0.2703609316    0.8188800158
H365       H    0.8871726316    0.4195977164    0.9145773929
F366       F    0.8487088263    0.3662344387    0.8856427199
C347       C    0.7747482243    0.2527719094    0.6985026665
C348       C    0.7801687630    0.2499564049    0.7575048242
C349       C    0.7583966762    0.2471544299    0.7950743000
C350       C    0.7324238798    0.2471378396    0.7751765120
C351       C    0.7270034369    0.2499602830    0.7161761693
C352       C    0.7487755237    0.2527622581    0.6786066934
F353       F    0.7451154784    0.2555472330    0.6215371289
H354       H    0.7908578155    0.2549965875    0.6677903176
H355       H    0.7163143844    0.2449201004    0.8058906759
F356       F    0.7620567215    0.2443694550    0.8521438646
C337       C    0.5990318741    0.8006845543    0.3472916566
C338       C    0.6261107605    0.8121207867    0.3510202476
C339       C    0.6327927278    0.8570217740    0.3729468196
C340       C    0.6135519184    0.8891750480    0.3904055833
C341       C    0.5864735273    0.8777416429    0.3866691876
C342       C    0.5797915599    0.8328406556    0.3647426156
F343       F    0.5542624412    0.8194176209    0.3599109767
H344       H    0.5928624089    0.7664979377    0.3306741905
H345       H    0.6197218788    0.9233644919    0.4070152446
F346       F    0.6583218466    0.8704448087    0.3777784585
C327       C    0.6147300525    0.6906894888    0.4058581548
C328       C    0.6261161238    0.6877715931    0.3509823734
C329       C    0.6171879154    0.6513362527    0.3145922957
C330       C    0.5978617664    0.6192218058    0.3317123635
C331       C    0.5864787732    0.6221354751    0.3865899831
C332       C    0.5954069816    0.6585708155    0.4229800607
F333       F    0.5854084999    0.6635640374    0.4761484568
H334       H    0.6209462480    0.7181588291    0.4355102660
H335       H    0.5916486491    0.5917482391    0.3020620904
F336       F    0.6271863971    0.6463430308    0.2614238997
C317       C    0.8928347679    0.6131509425    0.0780441325
C318       C    0.9198274251    0.6222090942    0.0883935085
C319       C    0.9263561769    0.6647481632    0.1165418803
C320       C    0.9070503403    0.6968919880    0.1336880931
C321       C    0.8800585722    0.6878371941    0.1233313983
C322       C    0.8735298204    0.6452981250    0.0951830265
F323       F    0.8480901831    0.6342283338    0.0838215077
H324       H    0.8867840667    0.5808385441    0.0564748278
H325       H    0.9131019306    0.7292077442    0.1552500790
F326       F    0.9517958142    0.6758179545    0.1279033991
C307       C    0.9053047270    0.8849541766    0.1392388245
C308       C    0.9198337828    0.8778351379    0.0885517420
C309       C    0.9139624235    0.8372126294    0.0559400342
C310       C    0.8945867554    0.8050675368    0.0727112039
C311       C    0.8800607461    0.8121828860    0.1234015275
C312       C    0.8859321055    0.8528053944    0.1560132353
F313       F    0.8728273738    0.8619568900    0.2050600979
H314       H    0.9090926421    0.9157453762    0.1658768876
H315       H    0.8908018868    0.7742726476    0.0460763818
F316       F    0.9270671551    0.8280611338    0.0068931715
C297       C    0.7644669197    0.7920238721    0.2174364937
C298       C    0.7793761578    0.7499824499    0.2148739877
C299       C    0.7672664063    0.7081568881    0.2347222033
C300       C    0.7415592322    0.7079230038    0.2561475201
C301       C    0.7266517625    0.7499647925    0.2587177049
C302       C    0.7387615140    0.7917903543    0.2388694893
F303       F    0.7256960420    0.8333991771    0.2399982587
H304       H    0.7729204418    0.8252079347    0.2026508355
H305       H    0.7331074785    0.6747393077    0.2709408570
F306       F    0.7803318783    0.6665480653    0.2335934339
loop_
_geom_bond_atom_site_label_1
_geom_bond_atom_site_label_2
_geom_bond_distance
_geom_bond_site_symmetry_2
_ccdc_geom_bond_type
C3           O1 1.498       .   A
C3           O2 1.498       .   A
C3           C4 1.498       .   A
C7           O5 1.498       .   A
C7           O6 1.498       .   A
C7           C8 1.498       .   A
C11          O9 1.498       .   A
C11         O10 1.498       .   A
C11         C12 1.498       .   A
C15         O13 1.498       .   A
C15         O14 1.498       .   A
C15         C16 1.498       .   A
Zr17        O18 2.118       .   S
Zr17        O19 2.233       .   S
Zr17        O20 2.233       .   S
Zr17        O23 2.233       .   S
Zr17        O25 2.107       .   S
Zr17        O26 2.107       .   S
Zr17        O27 2.107       .   S
Zr17        O28 2.107       .   S
O18         H74 0.991       .   S
O18         H82 0.989       .   S
O19         C39 1.209       .   D
O20         C41 1.209       .   D
O21        Zr31 2.233       .   S
O21         C40 1.209       .   D
O22        Zr30 2.233       .   S
O22         C41 1.209       .   S
O23         C40 1.209       .   S
O24        Zr32 2.233       .   S
O24         C39 1.209       .   S
O25        Zr30 2.107       .   S
O25        Zr32 2.107       .   S
O26        Zr31 2.107       .   S
O26        Zr32 2.107       .   S
O26         H61 0.985       .   S
O27        Zr30 2.107       .   S
O27        Zr47 2.108       .   S
O27         H64 0.988       .   S
O28        Zr31 2.107       .   S
O28        Zr47 2.107       .   S
Zr29        O48 2.233       .   S
Zr29        O54 2.122       .   S
Zr29        O56 2.233       .   S
Zr29        O44 2.233       .   S
Zr29        O35 2.107       .   S
Zr29        O36 2.107       .   S
Zr29        O37 2.107       .   S
Zr29        O38 2.107       .   S
Zr30        O49 2.120       .   S
Zr30        O42 2.116       .   S
Zr30        O43 2.233       .   S
Zr30        O36 2.107       .   S
Zr30        O37 2.107       .   S
Zr31        O33 2.110       .   S
Zr31        O55 2.120       .   S
Zr31        O57 2.233       .   S
Zr31        O35 2.107       .   S
Zr31        O38 2.107       .   S
Zr32        O58 2.115       .   S
Zr32        O59 2.120       .   S
Zr32        O34 2.122       .   S
Zr32        O35 2.107       .   S
Zr32        O36 2.107       .   S
O33         H70 0.990       .   S
O34         H65 0.991       .   S
O34         H79 0.989       .   S
O36         H62 0.988       .   S
O37        Zr47 2.107       .   S
O38        Zr47 2.107       .   S
O38         H63 0.986       .   S
O42         H78 0.989       .   S
O43         C45 1.209       .   D
O44         C45 1.209       .   S
O46        Zr47 2.122       .   S
O46         H75 0.990       .   S
Zr47        O50 2.116       .   S
Zr47        O51 2.126       .   S
Zr47        O52 2.233       .   S
O48         C53 1.209       .   S
O49         H66 0.991       .   S
O49         H81 0.989       .   S
O50         H67 0.991       .   S
O51         H71 0.991       .   S
O51         H80 0.988       .   S
O52         C53 1.209       .   D
O54         H73 0.990       .   S
O54         H77 0.989       .   S
O55         H69 0.991       .   S
O55         H76 0.989       .   S
O56         C60 1.209       .   S
O57         C60 1.209       .   D
O58         H68 0.991       .   S
O59         H72 0.989       .   S
Zr83        O84 2.118       .   S
Zr83        O85 2.233       .   S
Zr83        O86 2.233       .   S
Zr83        O89 2.233       .   S
Zr83        O91 2.107       .   S
Zr83        O92 2.107       .   S
Zr83        O93 2.107       .   S
Zr83        O94 2.107       .   S
O84        H140 0.991       .   S
O84        H148 0.989       .   S
O85        C105 1.209       .   D
O86        C107 1.209       .   D
O87        Zr97 2.233       .   S
O87        C106 1.209       .   D
O88        Zr96 2.233       .   S
O88        C107 1.209       .   S
O89        C106 1.209       .   S
O90        Zr98 2.233       .   S
O90        C105 1.209       .   S
O91        Zr96 2.107       .   S
O91        Zr98 2.107       .   S
O92        Zr97 2.107       .   S
O92        Zr98 2.107       .   S
O92        H127 0.985       .   S
O93        Zr96 2.107       .   S
O93       Zr113 2.108       .   S
O93        H130 0.988       .   S
O94        Zr97 2.107       .   S
O94       Zr113 2.107       .   S
Zr95       O114 2.233       .   S
Zr95       O120 2.122       .   S
Zr95       O122 2.233       .   S
Zr95       O110 2.233       .   S
Zr95       O101 2.107       .   S
Zr95       O102 2.107       .   S
Zr95       O103 2.107       .   S
Zr95       O104 2.107       .   S
Zr96       O115 2.120       .   S
Zr96       O108 2.116       .   S
Zr96       O109 2.233       .   S
Zr96       O102 2.107       .   S
Zr96       O103 2.107       .   S
Zr97        O99 2.110       .   S
Zr97       O121 2.120       .   S
Zr97       O123 2.233       .   S
Zr97       O101 2.107       .   S
Zr97       O104 2.107       .   S
Zr98       O124 2.115       .   S
Zr98       O125 2.120       .   S
Zr98       O100 2.122       .   S
Zr98       O101 2.107       .   S
Zr98       O102 2.107       .   S
O99        H136 0.990       .   S
O100       H131 0.991       .   S
O100       H145 0.989       .   S
O102       H128 0.988       .   S
O103      Zr113 2.107       .   S
O104      Zr113 2.107       .   S
O104       H129 0.986       .   S
O108       H144 0.989       .   S
O109       C111 1.209       .   D
O110       C111 1.209       .   S
O112      Zr113 2.122       .   S
O112       H141 0.990       .   S
Zr113      O116 2.116       .   S
Zr113      O117 2.126       .   S
Zr113      O118 2.233       .   S
O114       C119 1.209       .   S
O115       H132 0.991       .   S
O115       H147 0.989       .   S
O116       H133 0.991       .   S
O117       H137 0.991       .   S
O117       H146 0.988       .   S
O118       C119 1.209       .   D
O120       H139 0.990       .   S
O120       H143 0.989       .   S
O121       H135 0.991       .   S
O121       H142 0.989       .   S
O122       C126 1.209       .   S
O123       C126 1.209       .   D
O124       H134 0.991       .   S
O125       H138 0.989       .   S
C151       O149 1.498       .   A
C151       O150 1.498       .   A
C151       C152 1.498       .   A
C155       O153 1.498       .   A
C155       O154 1.498       .   A
C155       C156 1.498       .   A
C159       O157 1.498       .   A
C159       O158 1.498       .   A
C159       C160 1.498       .   A
C163       O161 1.498       .   A
C163       O162 1.498       .   A
C163       C164 1.498       .   A
Zr165      O166 2.118       .   S
Zr165      O167 2.233       .   S
Zr165      O168 2.233       .   S
Zr165      O171 2.233       .   S
Zr165      O173 2.107       .   S
Zr165      O174 2.107       .   S
Zr165      O175 2.107       .   S
Zr165      O176 2.107       .   S
O166       H222 0.991       .   S
O166       H230 0.989       .   S
O167       C187 1.209       .   D
O168       C189 1.209       .   D
O169      Zr179 2.233       .   S
O169       C188 1.209       .   D
O170      Zr178 2.233       .   S
O170       C189 1.209       .   S
O171       C188 1.209       .   S
O172      Zr180 2.233       .   S
O172       C187 1.209       .   S
O173      Zr178 2.107       .   S
O173      Zr180 2.107       .   S
O174      Zr179 2.107       .   S
O174      Zr180 2.107       .   S
O174       H209 0.985       .   S
O175      Zr178 2.107       .   S
O175      Zr195 2.108       .   S
O175       H212 0.988       .   S
O176      Zr179 2.107       .   S
O176      Zr195 2.107       .   S
Zr177      O196 2.233       .   S
Zr177      O202 2.122       .   S
Zr177      O204 2.233       .   S
Zr177      O192 2.233       .   S
Zr177      O183 2.107       .   S
Zr177      O184 2.107       .   S
Zr177      O185 2.107       .   S
Zr177      O186 2.107       .   S
Zr178      O197 2.120       .   S
Zr178      O190 2.116       .   S
Zr178      O191 2.233       .   S
Zr178      O184 2.107       .   S
Zr178      O185 2.107       .   S
Zr179      O181 2.110       .   S
Zr179      O203 2.120       .   S
Zr179      O205 2.233       .   S
Zr179      O183 2.107       .   S
Zr179      O186 2.107       .   S
Zr180      O206 2.115       .   S
Zr180      O207 2.120       .   S
Zr180      O182 2.122       .   S
Zr180      O183 2.107       .   S
Zr180      O184 2.107       .   S
O181       H218 0.990       .   S
O182       H213 0.991       .   S
O182       H227 0.989       .   S
O184       H210 0.988       .   S
O185      Zr195 2.107       .   S
O186      Zr195 2.107       .   S
O186       H211 0.986       .   S
O190       H226 0.989       .   S
O191       C193 1.209       .   D
O192       C193 1.209       .   S
O194      Zr195 2.122       .   S
O194       H223 0.990       .   S
Zr195      O198 2.116       .   S
Zr195      O199 2.126       .   S
Zr195      O200 2.233       .   S
O196       C201 1.209       .   S
O197       H214 0.991       .   S
O197       H229 0.989       .   S
O198       H215 0.991       .   S
O199       H219 0.991       .   S
O199       H228 0.988       .   S
O200       C201 1.209       .   D
O202       H221 0.990       .   S
O202       H225 0.989       .   S
O203       H217 0.991       .   S
O203       H224 0.989       .   S
O204       C208 1.209       .   S
O205       C208 1.209       .   D
O206       H216 0.991       .   S
O207       H220 0.989       .   S
Zr231      O232 2.118       .   S
Zr231      O233 2.233       .   S
Zr231      O234 2.233       .   S
Zr231      O237 2.233       .   S
Zr231      O239 2.107       .   S
Zr231      O240 2.107       .   S
Zr231      O241 2.107       .   S
Zr231      O242 2.107       .   S
O232       H288 0.991       .   S
O232       H296 0.989       .   S
O233       C253 1.209       .   D
O234       C255 1.209       .   D
O235      Zr245 2.233       .   S
O235       C254 1.209       .   D
O236      Zr244 2.233       .   S
O236       C255 1.209       .   S
O237       C254 1.209       .   S
O238      Zr246 2.233       .   S
O238       C253 1.209       .   S
O239      Zr244 2.107       .   S
O239      Zr246 2.107       .   S
O240      Zr245 2.107       .   S
O240      Zr246 2.107       .   S
O240       H275 0.985       .   S
O241      Zr244 2.107       .   S
O241      Zr261 2.108       .   S
O241       H278 0.988       .   S
O242      Zr245 2.107       .   S
O242      Zr261 2.107       .   S
Zr243      O262 2.233       .   S
Zr243      O268 2.122       .   S
Zr243      O270 2.233       .   S
Zr243      O258 2.233       .   S
Zr243      O249 2.107       .   S
Zr243      O250 2.107       .   S
Zr243      O251 2.107       .   S
Zr243      O252 2.107       .   S
Zr244      O263 2.120       .   S
Zr244      O256 2.116       .   S
Zr244      O257 2.233       .   S
Zr244      O250 2.107       .   S
Zr244      O251 2.107       .   S
Zr245      O247 2.110       .   S
Zr245      O269 2.120       .   S
Zr245      O271 2.233       .   S
Zr245      O249 2.107       .   S
Zr245      O252 2.107       .   S
Zr246      O272 2.115       .   S
Zr246      O273 2.120       .   S
Zr246      O248 2.122       .   S
Zr246      O249 2.107       .   S
Zr246      O250 2.107       .   S
O247       H284 0.990       .   S
O248       H279 0.991       .   S
O248       H293 0.989       .   S
O250       H276 0.988       .   S
O251      Zr261 2.107       .   S
O252      Zr261 2.107       .   S
O252       H277 0.986       .   S
O256       H292 0.989       .   S
O257       C259 1.209       .   D
O258       C259 1.209       .   S
O260      Zr261 2.122       .   S
O260       H289 0.990       .   S
Zr261      O264 2.116       .   S
Zr261      O265 2.126       .   S
Zr261      O266 2.233       .   S
O262       C267 1.209       .   S
O263       H280 0.991       .   S
O263       H295 0.989       .   S
O264       H281 0.991       .   S
O265       H285 0.991       .   S
O265       H294 0.988       .   S
O266       C267 1.209       .   D
O268       H287 0.990       .   S
O268       H291 0.989       .   S
O269       H283 0.991       .   S
O269       H290 0.989       .   S
O270       C274 1.209       .   S
O271       C274 1.209       .   D
O272       H282 0.991       .   S
O273       H286 0.989       .   S
C297       C298 1.403       .   A
C297       C302 1.387       .   A
C297       H304 1.083       .   S
C298       C299 1.404       .   A
C299       C300 1.387       .   A
C299       F306 1.344       .   S
C300       C301 1.403       .   A
C300       H305 1.083       .   S
C301       C302 1.404       .   A
C302       F303 1.344       .   S
C307       C308 1.403       .   A
C307       C312 1.387       .   A
C307       H314 1.083       .   S
C308       C309 1.404       .   A
C309       C310 1.387       .   A
C309       F316 1.344       .   S
C310       C311 1.403       .   A
C310       H315 1.083       .   S
C311       C312 1.404       .   A
C312       F313 1.344       .   S
C317       C318 1.403       .   A
C317       C322 1.387       .   A
C317       H324 1.083       .   S
C318       C319 1.404       .   A
C319       C320 1.387       .   A
C319       F326 1.344       .   S
C320       C321 1.403       .   A
C320       H325 1.083       .   S
C321       C322 1.404       .   A
C322       F323 1.344       .   S
C327       C328 1.403       .   A
C327       C332 1.387       .   A
C327       H334 1.083       .   S
C328       C329 1.404       .   A
C329       C330 1.387       .   A
C329       F336 1.344       .   S
C330       C331 1.403       .   A
C330       H335 1.083       .   S
C331       C332 1.404       .   A
C332       F333 1.344       .   S
C337       C338 1.403       .   A
C337       C342 1.387       .   A
C337       H344 1.083       .   S
C338       C339 1.404       .   A
C339       C340 1.387       .   A
C339       F346 1.344       .   S
C340       C341 1.403       .   A
C340       H345 1.083       .   S
C341       C342 1.404       .   A
C342       F343 1.344       .   S
C347       C348 1.403       .   A
C347       C352 1.387       .   A
C347       H354 1.083       .   S
C348       C349 1.404       .   A
C349       C350 1.387       .   A
C349       F356 1.344       .   S
C350       C351 1.403       .   A
C350       H355 1.083       .   S
C351       C352 1.404       .   A
C352       F353 1.344       .   S
C357       C358 1.403       .   A
C357       C362 1.387       .   A
C357       H364 1.083       .   S
C358       C359 1.404       .   A
C359       C360 1.387       .   A
C359       F366 1.344       .   S
C360       C361 1.403       .   A
C360       H365 1.083       .   S
C361       C362 1.404       .   A
C362       F363 1.344       .   S
C367       C368 1.403       .   A
C367       C372 1.387       .   A
C367       H374 1.083       .   S
C368       C369 1.404       .   A
C369       C370 1.387       .   A
C369       F376 1.344       .   S
C370       C371 1.403       .   A
C370       H375 1.083       .   S
C371       C372 1.404       .   A
C372       F373 1.344       .   S
C377       C378 1.403       .   A
C377       C382 1.387       .   A
C377       H384 1.083       .   S
C378       C379 1.404       .   A
C379       C380 1.387       .   A
C379       F386 1.344       .   S
C380       C381 1.403       .   A
C380       H385 1.083       .   S
C381       C382 1.404       .   A
C382       F383 1.344       .   S
C387       C388 1.403       .   A
C387       C392 1.387       .   A
C387       H394 1.083       .   S
C388       C389 1.404       .   A
C389       C390 1.387       .   A
C389       F396 1.344       .   S
C390       C391 1.403       .   A
C390       H395 1.083       .   S
C391       C392 1.404       .   A
C392       F393 1.344       .   S
C397       C398 1.403       .   A
C397       C402 1.387       .   A
C397       H404 1.083       .   S
C398       C399 1.404       .   A
C399       C400 1.387       .   A
C399       F406 1.344       .   S
C400       C401 1.403       .   A
C400       H405 1.083       .   S
C401       C402 1.404       .   A
C402       F403 1.344       .   S
C407       C408 1.403       .   A
C407       C412 1.387       .   A
C407       H414 1.083       .   S
C408       C409 1.404       .   A
C409       C410 1.387       .   A
C409       F416 1.344       .   S
C410       C411 1.403       .   A
C410       H415 1.083       .   S
C411       C412 1.404       .   A
C412       F413 1.344       .   S
C417       C418 1.403       .   A
C417       C422 1.387       .   A
C417       H424 1.083       .   S
C418       C419 1.404       .   A
C419       C420 1.387       .   A
C419       F426 1.344       .   S
C420       C421 1.403       .   A
C420       H425 1.083       .   S
C421       C422 1.404       .   A
C422       F423 1.344       .   S
C427       C428 1.403       .   A
C427       C432 1.387       .   A
C427       H434 1.083       .   S
C428       C429 1.404       .   A
C429       C430 1.387       .   A
C429       F436 1.344       .   S
C430       C431 1.403       .   A
C430       H435 1.083       .   S
C431       C432 1.404       .   A
C432       F433 1.344       .   S
C437       C438 1.403       .   A
C437       C442 1.387       .   A
C437       H444 1.083       .   S
C438       C439 1.404       .   A
C439       C440 1.387       .   A
C439       F446 1.344       .   S
C440       C441 1.403       .   A
C440       H445 1.083       .   S
C441       C442 1.404       .   A
C442       F443 1.344       .   S
C447       C448 1.403       .   A
C447       C452 1.387       .   A
C447       H454 1.083       .   S
C448       C449 1.404       .   A
C449       C450 1.387       .   A
C449       F456 1.344       .   S
C450       C451 1.403       .   A
C450       H455 1.083       .   S
C451       C452 1.404       .   A
C452       F453 1.344       .   S
C457       C458 1.403       .   A
C457       C462 1.387       .   A
C457       H464 1.083       .   S
C458       C459 1.404       .   A
C459       C460 1.387       .   A
C459       F466 1.344       .   S
C460       C461 1.403       .   A
C460       H465 1.083       .   S
C461       C462 1.404       .   A
C462       F463 1.344       .   S
C467       C468 1.403       .   A
C467       C472 1.387       .   A
C467       H474 1.083       .   S
C468       C469 1.404       .   A
C469       C470 1.387       .   A
C469       F476 1.344       .   S
C470       C471 1.403       .   A
C470       H475 1.083       .   S
C471       C472 1.404       .   A
C472       F473 1.344       .   S
C477       C478 1.403       .   A
C477       C482 1.387       .   A
C477       H484 1.083       .   S
C478       C479 1.404       .   A
C479       C480 1.387       .   A
C479       F486 1.344       .   S
C480       C481 1.403       .   A
C480       H485 1.083       .   S
C481       C482 1.404       .   A
C482       F483 1.344       .   S
C487       C488 1.403       .   A
C487       C492 1.387       .   A
C487       H494 1.083       .   S
C488       C489 1.404       .   A
C489       C490 1.387       .   A
C489       F496 1.344       .   S
C490       C491 1.403       .   A
C490       H495 1.083       .   S
C491       C492 1.404       .   A
C492       F493 1.344       .   S
C497       C498 1.403       .   A
C497       C502 1.387       .   A
C497       H504 1.083       .   S
C498       C499 1.404       .   A
C499       C500 1.387       .   A
C499       F506 1.344       .   S
C500       C501 1.403       .   A
C500       H505 1.083       .   S
C501       C502 1.404       .   A
C502       F503 1.344       .   S
C507       C508 1.403       .   A
C507       C512 1.387       .   A
C507       H514 1.083       .   S
C508       C509 1.404       .   A
C509       C510 1.387       .   A
C509       F516 1.344       .   S
C510       C511 1.403       .   A
C510       H515 1.083       .   S
C511       C512 1.404       .   A
C512       F513 1.344       .   S
C517       C518 1.403       .   A
C517       C522 1.387       .   A
C517       H524 1.083       .   S
C518       C519 1.404       .   A
C519       C520 1.387       .   A
C519       F526 1.344       .   S
C520       C521 1.403       .   A
C520       H525 1.083       .   S
C521       C522 1.404       .   A
C522       F523 1.344       .   S
C527       C528 1.403       .   A
C527       C532 1.387       .   A
C527       H534 1.083       .   S
C528       C529 1.404       .   A
C529       C530 1.387       .   A
C529       F536 1.344       .   S
C530       C531 1.403       .   A
C530       H535 1.083       .   S
C531       C532 1.404       .   A
C532       F533 1.344       .   S
O1         C311 1.540       .   S
O2         C298 1.530       .   S
C4         C321 1.540       .   S
O5         C328 1.540       .   S
O6         C301 1.530       .   S
C8         C338 1.540       .   S
O9         C358 1.540       .   S
O10        C348 1.534       .   S
C12        C371 1.540       .   S
O13        C378 1.540       .   S
O14        C351 1.534       .   S
C16        C388 1.540       .   S
C39        C401 1.260       .   S
C40        C381 1.540       .   S
C41        C421 1.540       .   S
C45        C431 1.540       .   S
C53        C408 1.260       .   S
C60        C331 1.540       .   S
C105       C398 1.260   1_565   S
C106       C441 1.540       .   S
C107       C391 1.540   1_565   S
C111       C341 1.540       .   S
C119       C411 1.260       .   S
C126       C448 1.540       .   S
O149       C471 1.540       .   S
O150       C458 1.530       .   S
C152       C481 1.539       .   S
O153       C418 1.540       .   S
O154       C461 1.530       .   S
C156       C438 1.540   1_545   S
O157       C501 1.540       .   S
O158       C488 1.534       .   S
C160       C511 1.540       .   S
O161       C428 1.540       .   S
O162       C491 1.534       .   S
C164       C451 1.540       .   S
C187       C531 1.260       .   S
C188       C468 1.540       .   S
C189       C368 1.540   1_455   S
C193       C308 1.540   1_446   S
C201       C518 1.260       .   S
C208       C498 1.540   1_546   S
C253       C521 1.260   1_565   S
C254       C318 1.540   1_456   S
C255       C508 1.540   1_556   S
C259       C478 1.539       .   S
C267       C528 1.260       .   S
C274       C361 1.540   1_455   S
