data_she_v1-4c_porphyrin_Ch_v2-6c_Zr_1_Ch_1-1B_2F_Chnobond
_audit_creation_date              2024-10-12
_audit_creation_method            'tobacco_3.0'
_symmetry_space_group_name_H-M    'P1'
_symmetry_Int_Tables_number       1
_symmetry_cell_setting            triclinic
loop_
_symmetry_equiv_pos_as_xyz
  x,y,z
_cell_length_a                    37.79516799969627
_cell_length_b                    37.66226978664538
_cell_length_c                    37.670116411378814
_cell_angle_alpha                 90.0119374395374
_cell_angle_beta                  86.80152479811903
_cell_angle_gamma                 86.76161103510533
loop_
_atom_site_label
_atom_site_type_symbol
_atom_site_fract_x
_atom_site_fract_y
_atom_site_fract_z
N2         N   -0.0066855192    0.2495938707    0.5553923357
N3         N    0.0522520730    0.2501707758    0.5025215593
N4         N    0.0069384675    0.2504214953    0.4425118815
N5         N   -0.0520247397    0.2498430342    0.4955948891
C6         C    0.0210604431    0.2495424672    0.5773316834
C7         C   -0.0392439027    0.2493529310    0.5733259193
C8         C    0.0393994388    0.2506701521    0.4234085683
C9         C   -0.0204315193    0.2504821037    0.4194342493
C10        C    0.0699285334    0.2500348811    0.5314534961
C11        C    0.0775489500    0.2504553842    0.4744652835
C12        C   -0.0763482968    0.2495751336    0.5217369413
C13        C   -0.0702006423    0.2499910079    0.4646508993
C14        C    0.0041445298    0.2492352305    0.6130445619
C15        C   -0.0311491606    0.2491243026    0.6107001504
C16        C    0.0320959489    0.2508892786    0.3878250997
C17        C   -0.0047231022    0.2507735565    0.3853793649
C18        C    0.1086431549    0.2502195482    0.5248928948
C19        C    0.1118468187    0.2504740041    0.4896731024
C20        C   -0.1128760363    0.2495233144    0.5101783063
C21        C   -0.1075947260    0.2497843004    0.4750965232
C22        C    0.0561888737    0.2497221341    0.5696236527
C23        C   -0.0719677236    0.2493193385    0.5611107488
C24        C   -0.0575827377    0.2502734850    0.4302837588
C25        C    0.0733615877    0.2506850425    0.4389818397
H26        H    0.0171764480    0.2491118511    0.6377369685
H27        H   -0.0498868237    0.2489010716    0.6332822373
H28        H    0.0512120924    0.2511127770    0.3654018616
H29        H   -0.0181655197    0.2508947235    0.3607933985
H30        H    0.1293194277    0.2501674124    0.5432472383
H31        H    0.1370709777    0.2506670848    0.4748490801
H32        H   -0.1376186930    0.2493284271    0.5255156613
H33        H   -0.1288677688    0.2498312406    0.4571838873
H37        H   -0.0034308112    0.2497915864    0.5284257125
H38        H    0.0036917642    0.2502242659    0.4694121824
Zr35      Zr    0.3422323806    0.2037100071    0.2817161351
O36        O    0.3876432840    0.2226734155    0.3043906139
O37        O    0.3557539642    0.1490364139    0.2602761384
O38        O    0.3499457367    0.1718264843    0.3309386502
O39        O    0.3615066272    0.2458658906    0.1986860183
O40        O    0.2982688884    0.1726729986    0.3609837864
O41        O    0.3852999729    0.2127367035    0.2402106462
O42        O    0.3086643477    0.1319128855    0.2345773710
O43        O    0.2928221399    0.1806286728    0.2886550419
O44        O    0.3136348498    0.2047128495    0.2352410083
O45        O    0.3067929924    0.2315369114    0.3184402994
O46        O    0.3276041167    0.2556249637    0.2650297240
Zr47      Zr    0.2218740328    0.2578979180    0.2634006937
Zr48      Zr    0.2598162229    0.2050687729    0.3296278112
Zr49      Zr    0.3042879690    0.2565419315    0.2154851157
Zr50      Zr    0.2671223258    0.1764019253    0.2407284132
O51        O    0.3266523569    0.3063436228    0.2087840013
O52        O    0.2437460104    0.1314314507    0.2640072967
O53        O    0.2573127853    0.2300699173    0.2266691693
O54        O    0.2365000753    0.2059857407    0.2800832029
O55        O    0.2504693421    0.2568978549    0.3098719186
O56        O    0.2712820521    0.2809820316    0.2564578850
C57        C    0.3386579941    0.1288635161    0.2441935540
C58        C    0.3851434818    0.2291089027    0.2126205793
C59        C    0.3295125961    0.1647204744    0.3554000047
O60        O    0.2356357296    0.1561468946    0.3374476235
O61        O    0.2025975647    0.2157448138    0.3464269086
O62        O    0.1788042190    0.2488740009    0.3049022807
C63        C    0.1789584887    0.2325045810    0.3324884458
O64        O    0.3479975842    0.2898344221    0.3241943864
Zr65      Zr    0.2969818662    0.2852087791    0.3043845138
O66        O    0.2083502278    0.3125742905    0.2848367885
O67        O    0.2556257660    0.2287805860    0.3808360967
O68        O    0.2861526797    0.2927714407    0.3596674383
O69        O    0.3214025007    0.3310799251    0.2841343817
O70        O    0.2554398443    0.3296978189    0.3105355559
C71        C    0.2254461978    0.3327471883    0.3009193729
O72        O    0.1774068270    0.2412835519    0.2370803854
O73        O    0.3035688832    0.2354083665    0.1633721235
O74        O    0.2141584552    0.2897842200    0.2141742767
O75        O    0.2658353035    0.2889377057    0.1841291405
O76        O    0.2763521244    0.1672242236    0.1855178309
O77        O    0.2199476773    0.1710012259    0.2137575074
C78        C    0.2345915959    0.2968902300    0.1897129222
H79        H    0.3283368486    0.1921126885    0.2162561136
H80        H    0.2144675696    0.1931423097    0.2831052238
H81        H    0.2670638415    0.3057223286    0.2485356813
H82        H    0.3190437676    0.2326798107    0.3408564615
H83        H    0.2424404242    0.1141696967    0.2443348121
H84        H    0.2456612053    0.2105478174    0.3968526119
H85        H    0.2887250728    0.3183252685    0.3644798788
H86        H    0.2733507507    0.1415683981    0.1815479334
H87        H    0.3150146503    0.2530092383    0.1476483375
H88        H    0.3317103869    0.3087685788    0.1828414099
H89        H    0.3188974231    0.3489532654    0.3035556137
H90        H    0.2006744644    0.1663762381    0.2317225426
H91        H    0.1867091636    0.2324130997    0.2134408756
H92        H    0.4049230959    0.2019205999    0.3049405766
H93        H    0.3464564990    0.3090246463    0.3422742657
H94        H    0.3203658000    0.2142881276    0.1618974206
H95        H    0.1693508544    0.2197453330    0.2493962695
H96        H    0.2548573738    0.1372107097    0.3374006916
H97        H    0.2615836739    0.1201237966    0.2792822988
H98        H    0.3063925098    0.3415339781    0.2657318295
H99        H    0.2800166190    0.2308493529    0.3885433747
H100       H    0.3809560702    0.2279634019    0.3296814290
Zr101     Zr    0.7936263957    0.2132315371    0.7003138040
O102       O    0.8406736056    0.1875621709    0.7181487966
O103       O    0.8049479885    0.2340082022    0.6455718130
O104       O    0.8030792419    0.1635232815    0.6680270651
O105       O    0.8097964130    0.2950546602    0.7424850499
O106       O    0.7527611393    0.1367205869    0.6697884897
O107       O    0.8349660374    0.2520353229    0.7086597716
O108       O    0.7561095560    0.2628089531    0.6296271992
O109       O    0.7439307655    0.2095022378    0.6782763924
O110       O    0.7627020791    0.2616117586    0.7021972184
O111       O    0.7604984252    0.1786217949    0.7286271415
O112       O    0.7792684023    0.2307279412    0.7525518498
Zr113     Zr    0.6732397759    0.2391016941    0.7570709494
Zr114     Zr    0.7133771393    0.1704910114    0.7031317204
Zr115     Zr    0.7534866744    0.2818462622    0.7542558779
Zr116     Zr    0.7157271481    0.2591670428    0.6748861184
O117       O    0.7766583330    0.2869846715    0.8035409898
O118       O    0.6924575072    0.2374716659    0.6303470967
O119       O    0.7063667249    0.2737188532    0.7287565746
O120       O    0.6875954113    0.2216093324    0.7048357485
O121       O    0.7041617345    0.1907255150    0.7551903799
O122       O    0.7229330481    0.2428350358    0.7791112060
C123       C    0.7865841084    0.2512702277    0.6258902036
C124       C    0.8338126231    0.2796361155    0.7251721747
C125       C    0.7836383280    0.1403435849    0.6612203481
O126       O    0.6884586153    0.1643452311    0.6547567921
O127       O    0.6570674006    0.1572826134    0.7149025484
O128       O    0.6318977762    0.2003019506    0.7487278267
C129       C    0.6330488326    0.1727052004    0.7322182685
O130       O    0.8033520381    0.1700551933    0.7859207504
Zr131     Zr    0.7511366655    0.1931702308    0.7825014799
O132       O    0.6619158251    0.2183290713    0.8118157853
O133       O    0.7121975001    0.1193889666    0.7265885692
O134       O    0.7431512090    0.1384577496    0.7899523863
O135       O    0.7756211088    0.2117621462    0.8278995461
O136       O    0.7107542577    0.1895283205    0.8277603991
C137       C    0.6802797053    0.2010670459    0.8314973947
O138       O    0.6270109915    0.2683562046    0.7415827849
O139       O    0.7497558677    0.3341603720    0.7334824062
O140       O    0.6637845717    0.2888139921    0.7893605332
O141       O    0.7141026743    0.3156166867    0.7875991086
O142       O    0.7220777221    0.3139139109    0.6658563073
O143       O    0.6669950962    0.2892129840    0.6706542650
C144       C    0.6832254856    0.3119936887    0.7961672502
H145       H    0.7762386663    0.2797292837    0.6894193060
H146       H    0.6653768540    0.2200261737    0.6924624709
H147       H    0.7188520724    0.2509674768    0.8039469654
H148       H    0.7739027933    0.1553804080    0.7293753055
H149       H    0.6898112861    0.2573135117    0.6132585785
H150       H    0.7025971163    0.1040338332    0.7085019351
H151       H    0.7465193237    0.1333970416    0.8153807371
H152       H    0.7183185919    0.3181582584    0.6403302081
H153       H    0.7608418607    0.3491295798    0.7509050666
H154       H    0.7805112274    0.3126434365    0.8060089897
H155       H    0.7744479501    0.1924134201    0.8456808716
H156       H    0.6484526482    0.2724598044    0.6663385026
H157       H    0.6349870691    0.2914702595    0.7326704801
H158       H    0.8575746234    0.1859696165    0.6970609864
H159       H    0.8031081503    0.1519847868    0.8050043261
H160       H    0.7660656539    0.3346279953    0.7120500504
H161       H    0.6190712035    0.2565962361    0.7201777416
H162       H    0.7073165059    0.1632213227    0.6354450058
H163       H    0.7108435101    0.2210643423    0.6185894269
H164       H    0.7598982909    0.2311246252    0.8387637106
H165       H    0.7370724370    0.1101050359    0.7280912874
H166       H    0.8353225920    0.1626375329    0.7234213441
N168       N    0.5122812926    1.0125101843    0.2036769572
N169       N    0.4559218352    0.9631375465    0.2040366995
N170       N    0.5043447799    0.9002637526    0.2047756433
N171       N    0.5607191592    0.9498474295    0.2044138353
C172       C    0.4833803243    1.0361775768    0.2033738611
C173       C    0.5439856872    1.0284917664    0.2035919626
C174       C    0.4727971237    0.8831044786    0.2048727260
C175       C    0.5329267358    0.8754790016    0.2050891154
C176       C    0.4367531008    0.9931963309    0.2036927265
C177       C    0.4320028203    0.9365734196    0.2042452161
C178       C    0.5837600910    0.9745532967    0.2042217630
C179       C    0.5804899240    0.9177426813    0.2047795791
C180       C    0.4985174151    1.0709220667    0.2030634038
C181       C    0.5339872786    1.0664238733    0.2031910498
C182       C    0.4819124089    0.8470144352    0.2052532408
C183       C    0.5189152471    0.8423218340    0.2053864035
C184       C    0.3983071566    0.9889824314    0.2036448417
C185       C    0.3968797482    0.9538966788    0.2039907279
C186       C    0.6209320897    0.9607497314    0.2044460057
C187       C    0.6174166641    0.9259287756    0.2047843777
C188       C    0.4485844617    1.0305958250    0.2033481193
C189       C    0.5773807693    1.0142622209    0.2038116207
C190       C    0.5695897850    0.8840844748    0.2050891237
C191       C    0.4379918339    0.9007733758    0.2046155400
H192       H    0.4842152448    1.0964510709    0.2027758879
H193       H    0.5516132715    1.0879038330    0.2030184343
H194       H    0.4638992830    0.8257166528    0.2054231384
H195       H    0.5336232025    0.8168744514    0.2056740551
H196       H    0.3766687495    1.0086279909    0.2033987451
H197       H    0.3723642580    0.9405833292    0.2040659611
H198       H    0.6449393267    0.9746066321    0.2043641748
H199       H    0.6396304724    0.9066893410    0.2050277763
H203       H    0.5103852961    0.9856950262    0.2039394282
H204       H    0.5062361134    0.9270129610    0.2045138177
Zr201     Zr    0.7890403965    0.6929781101    0.3028011895
O202       O    0.8363073427    0.7143943625    0.2815337876
O203       O    0.7985130257    0.6719053280    0.3570721199
O204       O    0.7957095528    0.7423414367    0.3340054931
O205       O    0.8093865595    0.6091302040    0.2603030864
O206       O    0.7445996825    0.7734858913    0.3353430211
O207       O    0.8319293870    0.6504630181    0.2920626069
O208       O    0.7496205863    0.6474842666    0.3765976032
O209       O    0.7381230028    0.7012752218    0.3281608637
O210       O    0.7594452589    0.6471839457    0.3034687888
O211       O    0.7561406234    0.7301168453    0.2763192629
O212       O    0.7774616205    0.6760290128    0.2516233560
Zr213     Zr    0.6715806554    0.6767217021    0.2542807167
Zr214     Zr    0.7075289383    0.7426429247    0.3049256442
Zr215     Zr    0.7530899875    0.6270530073    0.2521536112
Zr216     Zr    0.7110551341    0.6540283277    0.3339404696
O217       O    0.7786702092    0.6192805597    0.2012967026
O218       O    0.6851346202    0.6783236847    0.3798856118
O219       O    0.7044795614    0.6395756430    0.2807638245
O220       O    0.6831573053    0.6936669192    0.3054558994
O221       O    0.7011736669    0.7225119863    0.2536104666
O222       O    0.7224959230    0.6684207101    0.2289183917
C223       C    0.7796929625    0.6564585486    0.3781843015
C224       C    0.8322692992    0.6227191134    0.2758790748
C225       C    0.7752757221    0.7673089044    0.3418923330
O226       O    0.6802102460    0.7515626675    0.3549779526
O227       O    0.6512323663    0.7605657279    0.2967761690
O228       O    0.6286895388    0.7192329139    0.2650166484
C229       C    0.6283475006    0.7469729384    0.2811975297
O230       O    0.8014378012    0.7342664135    0.2159875090
Zr231     Zr    0.7495637917    0.7156676043    0.2231387857
O232       O    0.6621059001    0.6977906039    0.2000071354
O233       O    0.7059932228    0.7936024236    0.2810033873
O234       O    0.7403886870    0.7710331545    0.2156653680
O235       O    0.7766556287    0.6943634871    0.1762210192
O236       O    0.7109983395    0.7222116654    0.1804816522
C237       C    0.6809259633    0.7132373834    0.1788949539
O238       O    0.6253377424    0.6516157167    0.2731788837
O239       O    0.7498554275    0.5752686793    0.2737294877
O240       O    0.6649093730    0.6273544953    0.2230737622
O241       O    0.7160192433    0.5962100407    0.2217362343
O242       O    0.7185212631    0.5987894417    0.3431048966
O243       O    0.6628276527    0.6282012761    0.3417414893
C244       C    0.6853432037    0.6023870275    0.2151869224
H245       H    0.7729436274    0.6280441264    0.3155398149
H246       H    0.6602820304    0.6973245539    0.3193190389
H247       H    0.7197385423    0.6603121928    0.2044010179
H248       H    0.7689765389    0.7522197382    0.2744403957
H249       H    0.6822612129    0.6589069764    0.3973742842
H250       H    0.6951363208    0.8100336393    0.2996057722
H251       H    0.7447647938    0.7754831408    0.1899240200
H252       H    0.7137263121    0.5951916600    0.3689621641
H253       H    0.7621616199    0.5591043591    0.2556887145
H254       H    0.7833481051    0.5932297402    0.1988233727
H255       H    0.7757439476    0.7136066567    0.1582991932
H256       H    0.6435825438    0.6466257391    0.3471377740
H257       H    0.6335707983    0.6279032344    0.2818009007
H258       H    0.8522663556    0.7148032846    0.3015046798
H259       H    0.8015512406    0.7521330877    0.1967120852
H260       H    0.7652627492    0.5736704868    0.2941055866
H261       H    0.6160960728    0.6643472944    0.2950292113
H262       H    0.6982237155    0.7513110676    0.3730438937
H263       H    0.7025934951    0.6933162155    0.3902654348
H264       H    0.7619082069    0.6761945646    0.1665871904
H265       H    0.7307473136    0.8007345637    0.2777402129
H266       H    0.8304938283    0.7397399966    0.2763629669
N268       N    0.0123825618    0.6581999549    0.5573635344
N269       N   -0.0439919012    0.6585410072    0.5079819573
N270       N    0.0044097601    0.6592496011    0.4451392132
N271       N    0.0607992132    0.6589065753    0.4947317878
C272       C   -0.0165102018    0.6579088650    0.5810154708
C273       C    0.0440915701    0.6581202767    0.5733527624
C274       C   -0.0271428949    0.6593408399    0.4279726100
C275       C    0.0329831544    0.6595505920    0.4203700537
C276       C   -0.0631505324    0.6582113271    0.5380273029
C277       C   -0.0679191055    0.6587391191    0.4814152817
C278       C    0.0838477472    0.6587241366    0.5194403061
C279       C    0.0805591999    0.6592570917    0.4626411450
C280       C   -0.0013621076    0.6576128964    0.6157575934
C281       C    0.0341056542    0.6577366271    0.6112729206
C282       C   -0.0180394886    0.6597049514    0.3918937946
C283       C    0.0189611571    0.6598340296    0.3872152984
C284       C   -0.1015971489    0.6581636799    0.5338007656
C285       C   -0.1030359194    0.6584941798    0.4987222962
C286       C    0.1210145931    0.6589402699    0.5056529277
C287       C    0.1174879290    0.6592634862    0.4708384591
C288       C   -0.0513072466    0.6578825590    0.5754226734
C289       C    0.0774814295    0.6583318435    0.5591381650
C290       C    0.0696483335    0.6595523954    0.4289865605
C291       C   -0.0619418200    0.6590933379    0.4456252979
H292       H   -0.0156557330    0.6573374117    0.6412758823
H293       H    0.0517383002    0.6575725185    0.6327543357
H294       H   -0.0360592013    0.6598664436    0.3705943797
H295       H    0.0336605868    0.6601096639    0.3617787563
H296       H   -0.1232287880    0.6579274211    0.5534343256
H297       H   -0.1275552873    0.6585648810    0.4854032464
H298       H    0.1450258933    0.6588632384    0.5195152285
H299       H    0.1396950907    0.6594971947    0.4516111370
H303       H    0.0104778960    0.6584507106    0.5305536584
H304       H    0.0063097416    0.6589994621    0.4718831525
Zr301     Zr    0.3417853785    0.7066774094    0.7194886742
O302       O    0.3904401345    0.6863358209    0.6947351208
O303       O    0.3493015404    0.7610627920    0.7404189828
O304       O    0.3501478202    0.7382908550    0.6698841131
O305       O    0.3590741500    0.6640557185    0.8017371976
O306       O    0.3004227981    0.7388886378    0.6420962937
O307       O    0.3829376514    0.6964637466    0.7591267470
O308       O    0.2989149021    0.7796161495    0.7682741293
O309       O    0.2907657712    0.7312064862    0.7147673118
O310       O    0.3100686775    0.7065825502    0.7673069260
O311       O    0.3110611576    0.6797799415    0.6842580737
O312       O    0.3303630326    0.6551521651    0.7367942909
Zr313     Zr    0.2244276797    0.6559429335    0.7431356951
Zr314     Zr    0.2624824341    0.7076220611    0.6751770493
Zr315     Zr    0.3037283680    0.6549955702    0.7874513236
Zr316     Zr    0.2614170219    0.7362661222    0.7639159080
O317       O    0.3298928795    0.6044969439    0.7931102475
O318       O    0.2357593467    0.7819282500    0.7416941027
O319       O    0.2551506759    0.6828415302    0.7783736962
O320       O    0.2358477695    0.7074654663    0.7258340821
O321       O    0.2561421246    0.6560350812    0.6953214470
O322       O    0.2754450310    0.6314111451    0.7478610611
C323       C    0.3293801722    0.7817834538    0.7573100957
C324       C    0.3823025189    0.6801240084    0.7867469007
C325       C    0.3307066310    0.7459551778    0.6463047393
O326       O    0.2346461571    0.7572904903    0.6684777172
O327       O    0.2071366521    0.6985619129    0.6608911753
O328       O    0.1832731507    0.6661538848    0.7035016260
C329       C    0.1839060271    0.6824909115    0.6758854758
O330       O    0.3576695550    0.6202076663    0.6765939582
Zr331     Zr    0.3047937802    0.6263515092    0.6987124649
O332       O    0.2169092617    0.6015548394    0.7222093901
O333       O    0.2637199280    0.6839141034    0.6240524213
O334       O    0.2982898537    0.6189976289    0.6438209615
O335       O    0.3317781032    0.5797521056    0.7178534326
O336       O    0.2672959000    0.5830014819    0.6943542436
C337       C    0.2368306299    0.5808341776    0.7053182772
O338       O    0.1766716031    0.6739115998    0.7714958643
O339       O    0.2977240817    0.6762659752    0.8396979657
O340       O    0.2160629819    0.6243267763    0.7927442598
O341       O    0.2657880040    0.6237289935    0.8205320792
O342       O    0.2661862017    0.7452832239    0.8188080443
O343       O    0.2118458762    0.7430870752    0.7930358401
C344       C    0.2355041711    0.6166624536    0.8163236337
H345       H    0.3224735083    0.7188049181    0.7856790109
H346       H    0.2128781289    0.7209576846    0.7238038335
H347       H    0.2727640885    0.6067767454    0.7559556043
H348       H    0.3249490598    0.6782418194    0.6612610298
H349       H    0.2316746913    0.7992829068    0.7614734655
H350       H    0.2532715573    0.7024300017    0.6084763322
H351       H    0.3033429290    0.5933298714    0.6388582138
H352       H    0.2607510697    0.7710640729    0.8229462201
H353       H    0.3096242020    0.6583393144    0.8549155720
H354       H    0.3334237549    0.6019674434    0.8188635673
H355       H    0.3320763107    0.5618959736    0.6984948619
H356       H    0.1933395625    0.7482450104    0.7759080581
H357       H    0.1836628516    0.6825642565    0.7947660530
H358       H    0.4060577593    0.7066121957    0.6934372607
H359       H    0.3589549492    0.6010074424    0.6585343182
H360       H    0.3126904074    0.6969277215    0.8404497364
H361       H    0.1676099846    0.6956880750    0.7595445627
H362       H    0.2523235821    0.7756927947    0.6676890751
H363       H    0.2537214338    0.7927063002    0.7256137648
H364       H    0.3163691833    0.5697521792    0.7369409250
H365       H    0.2888694287    0.6811227088    0.6152441762
H366       H    0.3858809247    0.6811893419    0.6696985803
N368       N    0.4924720213    1.0102112891    0.7967716102
N369       N    0.5514288879    0.9573079935    0.7973603500
N370       N    0.5061354366    0.8973004559    0.7976119539
N371       N    0.4471528809    0.9504160398    0.7970216341
C372       C    0.5202107871    1.0321459637    0.7967211338
C373       C    0.4599069071    1.0281602765    0.7965252509
C374       C    0.5386035435    0.8781815071    0.7978661355
C375       C    0.4787730477    0.8742271075    0.7976717903
C376       C    0.5690955676    0.9862403496    0.7972235627
C377       C    0.5767359013    0.9292365418    0.7976505701
C378       C    0.4228198674    0.9765724944    0.7967484207
C379       C    0.4289874505    0.9194713474    0.7971706442
C380       C    0.5032822059    1.0678728403    0.7964084633
C381       C    0.4679887881    1.0655401791    0.7962938210
C382       C    0.5313123047    0.8425924984    0.7980879743
C383       C    0.4944935380    0.8401590217    0.7979683773
C384       C    0.6078130629    0.9796647851    0.7974132100
C385       C    0.6110290127    0.9444358786    0.7976715172
C386       C    0.3862955831    0.9650239463    0.7966936629
C387       C    0.3915891634    0.9299323575    0.7969587189
C388       C    0.5553424350    1.0244239572    0.7969054935
C389       C    0.4271868278    1.0159537200    0.7964892103
C390       C    0.4416174893    0.8850920102    0.7974579409
C391       C    0.5725608031    0.8937464963    0.7978832792
H392       H    0.5163057450    1.0925663198    0.7962840924
H393       H    0.4492429914    1.0881339158    0.7960662549
H394       H    0.5504365325    0.8201575149    0.7983158344
H395       H    0.4810594564    0.8155721495    0.7980904794
H396       H    0.6284832761    0.9980161016    0.7973615660
H397       H    0.6362587094    0.9295997111    0.7978688890
H398       H    0.3615472177    0.9803733955    0.7964944875
H399       H    0.3703220176    0.9120230565    0.7970050566
H403       H    0.4957361486    0.9832374085    0.7969723645
H404       H    0.5028793372    0.9242079964    0.7974116934
N402       N    0.1912451509    0.5056236811    0.0096400627
N403       N    0.1914888635    0.4446922556   -0.0376928614
N404       N    0.1914425664    0.3930990868    0.0198346296
N405       N    0.1911984826    0.4542420743    0.0671483864
C406       C    0.1912942493    0.5227359175   -0.0224758406
C407       C    0.1911263191    0.5282586752    0.0381549239
C408       C    0.1915627574    0.3693354005   -0.0083380348
C409       C    0.1913961454    0.3748148047    0.0518167795
C410       C    0.1914991833    0.4702192281   -0.0612934874
C411       C    0.1916009856    0.4132944736   -0.0568826631
C412       C    0.1910918445    0.4836154681    0.0857751180
C413       C    0.1911895455    0.4268255913    0.0916666762
C414       C    0.1911955149    0.5603095230   -0.0132031796
C415       C    0.1910972321    0.5635417694    0.0222815504
C416       C    0.1915916115    0.3356797243    0.0063748213
C417       C    0.1914890811    0.3390516653    0.0433931686
C418       C    0.1916197917    0.4577427695   -0.0983001050
C419       C    0.1916783738    0.4227979329   -0.0940810874
C420       C    0.1910029246    0.4780298119    0.1244181373
C421       C    0.1910672923    0.4428947014    0.1265482624
C422       C    0.1914061455    0.5096987184   -0.0556859419
C423       C    0.1910492663    0.5214354817    0.0731643483
C424       C    0.1912740250    0.3912408773    0.0863727667
C425       C    0.1916386672    0.3792488099   -0.0452803412
H426       H    0.1911984105    0.5824175007   -0.0313087018
H427       H    0.1910116586    0.5885592505    0.0361175736
H428       H    0.1916780516    0.3107583416   -0.0078698066
H429       H    0.1914848550    0.3171120419    0.0618833364
H430       H    0.1916535695    0.4724557465   -0.1226538911
H431       H    0.1917717409    0.4043520657   -0.1159772575
H432       H    0.1909102237    0.4969023190    0.1457291267
H433       H    0.1910311781    0.4287071140    0.1514009766
H437       H    0.1912923125    0.4787420712    0.0120754980
H438       H    0.1913955208    0.4199145835    0.0174051840
N436       N    0.6916844269    0.4627894338    1.0509512153
N437       N    0.6916263676    0.5203238326    0.9995959447
N438       N    0.6919021510    0.4730143337    0.9384517834
N439       N    0.6919598010    0.4154607106    0.9900185687
C440       C    0.6915495595    0.4913052627    1.0735897336
C441       C    0.6917423874    0.4306618482    1.0680510392
C442       C    0.6918471733    0.5050084265    0.9201801084
C443       C    0.6920384875    0.4448410614    0.9146848927
C444       C    0.6915061050    0.5389475697    1.0289687498
C445       C    0.6916137637    0.5448546093    0.9721917819
C446       C    0.6919738368    0.3918482798    1.0155338531
C447       C    0.6920862048    0.3962742765    0.9586216184
C448       C    0.6915190610    0.4754194461    1.1088613770
C449       C    0.6916319153    0.4399273125    1.1056198035
C450       C    0.6919511238    0.4965917584    0.8844216900
C451       C    0.6920688556    0.4595656876    0.8810400188
C452       C    0.6914032825    0.5776009152    1.0233950553
C453       C    0.6914744031    0.5797402681    0.9882675058
C454       C    0.6921116077    0.3548362049    1.0030494719
C455       C    0.6921760849    0.3590648860    0.9681127453
C456       C    0.6914602919    0.5263244807    1.0667777263
C457       C    0.6918700828    0.3974473071    1.0550070950
C458       C    0.6921267007    0.4078877461    0.9245859605
C459       C    0.6917079958    0.5395683222    0.9366126327
H460       H    0.6914226765    0.4892524497    1.1338777869
H461       H    0.6916371166    0.4218121064    1.1277183143
H462       H    0.6919444052    0.5150916573    0.8624916082
H463       H    0.6921662456    0.4453239610    0.8561195734
H464       H    0.6912981749    0.5989121416    1.0422698087
H465       H    0.6914316352    0.6046022577    0.9740897111
H466       H    0.6921517307    0.3304731282    1.0177526923
H467       H    0.6922819954    0.3371682376    0.9496643829
H471       H    0.6917364402    0.4652321155    1.0240756166
H472       H    0.6918502657    0.4705776596    0.9652612837
Zr469     Zr    0.7216260816    0.7169757145    0.8041327220
O470       O    0.6761621392    0.6944815033    0.7850811668
O471       O    0.7081859804    0.7382028968    0.8588859338
O472       O    0.7138854508    0.6676206954    0.8357941333
O473       O    0.7024059411    0.8002471489    0.7623519807
O474       O    0.7655315038    0.6374635972    0.8348112106
O475       O    0.6785939296    0.7586202416    0.7952940459
O476       O    0.7553305878    0.7637263969    0.8761110842
O477       O    0.7710582803    0.7098255901    0.8271717722
O478       O    0.7502824933    0.7633994816    0.8033290508
O479       O    0.7569963085    0.6802947006    0.7761497235
O480       O    0.7362220992    0.7338651475    0.7523031124
Zr481     Zr    0.8419650912    0.7352757341    0.7500257249
Zr482     Zr    0.8039931233    0.6688855170    0.8025564332
Zr483     Zr    0.7596002730    0.7833698415    0.7515992519
Zr484     Zr    0.7968238409    0.7576838978    0.8316028840
O485       O    0.7371890897    0.7903432791    0.7018431329
O486       O    0.8202219319    0.7341499827    0.8764568959
O487       O    0.8065955102    0.7719641026    0.7780098514
O488       O    0.8273712971    0.7183902111    0.8018525728
O489       O    0.8133109030    0.6888558769    0.7508266343
O490       O    0.7925351160    0.7424297685    0.7269839129
C491       C    0.7253247001    0.7541602224    0.8791212200
C492       C    0.6787667524    0.7862868841    0.7790464060
C493       C    0.7342989501    0.6430801098    0.8427894051
O494       O    0.8282183644    0.6607932457    0.8514279085
O495       O    0.8611874552    0.6520082096    0.7918037044
O496       O    0.8849994667    0.6936351170    0.7588616393
C497       C    0.8848288675    0.6659723844    0.7751065174
O498       O    0.7157185648    0.6748901441    0.7178481298
Zr499     Zr    0.7667695554    0.6945714607    0.7225528011
O500       O    0.8554074159    0.7140524617    0.6952697513
O501       O    0.8080972345    0.6177677014    0.7786279633
O502       O    0.7775251884    0.6392917802    0.7147505028
O503       O    0.7423224006    0.7150825246    0.6767853125
O504       O    0.8082628085    0.6885289617    0.6780446009
C505       C    0.8382686962    0.6980951362    0.6750344651
O506       O    0.8864871784    0.7614288120    0.7667448600
O507       O    0.7604047220    0.8353934029    0.7729535622
O508       O    0.8497079455    0.7846346632    0.7183615519
O509       O    0.7980618925    0.8147917614    0.7193444745
O510       O    0.7876693991    0.8128805317    0.8410192748
O511       O    0.8440427687    0.7845320208    0.8371139900
C512       C    0.8292944462    0.8091752487    0.7113662800
H513       H    0.7356148361    0.7823622327    0.8160099866
H514       H    0.8494163506    0.7152625893    0.8146767529
H515       H    0.7967375769    0.7504546776    0.7022844753
H516       H    0.7447156260    0.6579072570    0.7749110339
H517       H    0.8215695853    0.7537448893    0.8937992797
H518       H    0.8180627119    0.6016458772    0.7967848398
H519       H    0.7749199045    0.6345987298    0.6891831420
H520       H    0.7907028031    0.8167295443    0.8666848903
H521       H    0.7489581579    0.8512228355    0.7554273035
H522       H    0.7321593293    0.8163110521    0.6995322899
H523       H    0.7447855554    0.6957333949    0.6588321675
H524       H    0.8633014724    0.7665022218    0.8416573237
H525       H    0.8772216028    0.7850518011    0.7757167525
H526       H    0.6589011965    0.6938759223    0.8058278044
H527       H    0.7172178541    0.6568905259    0.6985844132
H528       H    0.7436295734    0.8368100601    0.7940762733
H529       H    0.8945517709    0.7489974269    0.7882225856
H530       H    0.8090141677    0.6607969760    0.8703612405
H531       H    0.8023753386    0.7188609571    0.8876970051
H532       H    0.7573456490    0.7335018040    0.6664124977
H533       H    0.7836918047    0.6101214765    0.7765290463
H534       H    0.6828140073    0.6691966183    0.7796818612
N536       N    0.8228885048    0.9473995055    0.5632132442
N537       N    0.8230580839    0.9946926385    0.5022978002
N538       N    0.8226628633    0.9371569755    0.4507360302
N539       N    0.8224937084    0.8898831000    0.5118629472
C540       C    0.8230915487    0.9795147109    0.5803126802
C541       C    0.8227651646    0.9189022842    0.5858443024
C542       C    0.8227826156    0.9653115816    0.4269767990
C543       C    0.8224587937    0.9051749611    0.4324649981
C544       C    0.8232267867    1.0182985792    0.5278101274
C545       C    0.8231167583    1.0138632958    0.4709092054
C546       C    0.8224350954    0.8712744547    0.5412278695
C547       C    0.8223170959    0.8653588853    0.4844620417
C548       C    0.8230969148    0.9702613801    0.6178727852
C549       C    0.8229058954    0.9347873824    0.6211102196
C550       C    0.8226507406    0.9505874296    0.3933374291
C551       C    0.8224514656    0.9135802785    0.3967147824
C552       C    0.8234122934    1.0552899072    0.5153319414
C553       C    0.8233364066    1.0510562698    0.4804020116
C554       C    0.8222133693    0.8326390262    0.5356515462
C555       C    0.8221487273    0.8304936495    0.5005310371
C556       C    0.8232552537    1.0127102630    0.5672746754
C557       C    0.8225616342    0.8838989437    0.5790302772
C558       C    0.8222927597    0.8706353998    0.4488907521
C559       C    0.8230014672    1.0022486892    0.4368794364
H560       H    0.8232301372    0.9883721154    0.6399685064
H561       H    0.8228671720    0.9209662331    0.6461201142
H562       H    0.8226918643    0.9648171200    0.3684235192
H563       H    0.8223163732    0.8950850739    0.3747874178
H564       H    0.8235688773    1.0796439454    0.5300345093
H565       H    0.8234295152    1.0729384153    0.4619595974
H566       H    0.8221241332    0.8113421002    0.5545203206
H567       H    0.8219901800    0.8056410500    0.4863537376
H571       H    0.8228346001    0.9449526120    0.5363429533
H572       H    0.8227166354    0.9395978511    0.4775402359
Zr569     Zr    0.7243120836    0.1967024670    0.2019585752
O570       O    0.6757241868    0.2216800893    0.2222056676
O571       O    0.7167386088    0.1756933612    0.1476227476
O572       O    0.7161118787    0.2462775867    0.1702393366
O573       O    0.7067511346    0.1146011191    0.2447334587
O574       O    0.7659333283    0.2738771411    0.1696210970
O575       O    0.6830252965    0.1572389269    0.2122226585
O576       O    0.7670484756    0.1476110539    0.1291714765
O577       O    0.7753596331    0.2011832332    0.1774639159
O578       O    0.7558820216    0.1487636974    0.2021798203
O579       O    0.7551480450    0.2318706285    0.2287995248
O580       O    0.7356714751    0.1794544934    0.2535192625
Zr581     Zr    0.8416039939    0.1727115835    0.2528243426
Zr582     Zr    0.8037687953    0.2407138584    0.2009813077
Zr583     Zr    0.7621495253    0.1286961852    0.2538043314
Zr584     Zr    0.8045579946    0.1519129131    0.1725326872
O585       O    0.7359531607    0.1232349933    0.3042846490
O586       O    0.8302991249    0.1739487366    0.1268522520
O587       O    0.8107692340    0.1375360145    0.2259822810
O588       O    0.8302468455    0.1899555503    0.2012663765
O589       O    0.8100362990    0.2206463463    0.2526058187
O590       O    0.7905586875    0.1682268105    0.2773217232
C591       C    0.7366135096    0.1586860454    0.1269576264
C592       C    0.6835696842    0.1296478647    0.2286184345
C593       C    0.7356325732    0.2697690374    0.1625414272
O594       O    0.8316403423    0.2472107999    0.1513301040
O595       O    0.8591671860    0.2548089246    0.2100521803
O596       O    0.8828930241    0.2121711168    0.2425629805
C597       C    0.8823508796    0.2397581721    0.2261699258
O598       O    0.7085450681    0.2398277200    0.2883074605
Zr599     Zr    0.7613603260    0.2174971306    0.2822529519
O600       O    0.8491797118    0.1937166825    0.3071628915
O601       O    0.8026889577    0.2918907501    0.2245747487
O602       O    0.7680382495    0.2723796650    0.2894935593
O603       O    0.7343019396    0.1985490555    0.3288628883
O604       O    0.7988698450    0.2217989898    0.3256141625
C605       C    0.8293048110    0.2107239983    0.3278280127
O606       O    0.8892811572    0.1441353186    0.2349566806
O607       O    0.7679928982    0.0763840488    0.2326540447
O608       O    0.8498064419    0.1231324570    0.2845463025
O609       O    0.7999849923    0.0955329026    0.2851645420
O610       O    0.7996154144    0.0970199346    0.1636305369
O611       O    0.8540459794    0.1225918956    0.1658135442
C612       C    0.8302857474    0.0996410063    0.2922442119
H613       H    0.7434191616    0.1304140615    0.1899893728
H614       H    0.8532292307    0.1918726716    0.1877903441
H615       H    0.7932096506    0.1601703231    0.3019705296
H616       H    0.7413306438    0.2549235870    0.2302776087
H617       H    0.8343249316    0.1541194870    0.1095463271
H618       H    0.8131920289    0.3073913942    0.2060374851
H619       H    0.7629952179    0.2774119588    0.3151417203
H620       H    0.8050432052    0.0928105659    0.1378678479
H621       H    0.7560390933    0.0612462178    0.2506002987
H622       H    0.7323394321    0.0974994259    0.3068657309
H623       H    0.7340617617    0.2179441975    0.3466740221
H624       H    0.8726106767    0.1396400667    0.1606345322
H625       H    0.8822165171    0.1208740499    0.2263498609
H626       H    0.6601120263    0.2229971297    0.2019184502
H627       H    0.7073131613    0.2579302677    0.3074644180
H628       H    0.7530257058    0.0756482010    0.2119864012
H629       H    0.8983863610    0.1560099347    0.2131661298
H630       H    0.8139660728    0.2480300635    0.1329160699
H631       H    0.8123872614    0.1900760517    0.1160281796
H632       H    0.7496508196    0.1794226322    0.3389134127
H633       H    0.7775628279    0.3007995764    0.2273273237
H634       H    0.6803626740    0.2467100451    0.2273013605
N636       N   -0.0014569157    0.5105438067    0.2974943100
N637       N   -0.0464488191    0.4505228284    0.2970234754
N638       N    0.0128302305    0.3976639219    0.2963955760
N639       N    0.0577952720    0.4578971303    0.2968684764
C640       C   -0.0341229620    0.5283478548    0.2977331825
C641       C    0.0261624607    0.5326124889    0.2976435450
C642       C   -0.0144064649    0.3744579772    0.2962347565
C643       C    0.0454057185    0.3786891340    0.2961458226
C644       C   -0.0709275631    0.4765745945    0.2973227245
C645       C   -0.0644445911    0.4194856791    0.2967686420
C646       C    0.0753033662    0.4869190754    0.2971052959
C647       C    0.0832586382    0.4299343116    0.2965490243
C648       C   -0.0262468331    0.5657755835    0.2980702950
C649       C    0.0090357824    0.5682715011    0.2980178338
C650       C    0.0015029002    0.3404526603    0.2958787376
C651       C    0.0383103977    0.3430564491    0.2958240091
C652       C   -0.1073902731    0.4648545078    0.2972904626
C653       C   -0.1019027820    0.4297773614    0.2969467745
C654       C    0.1140594065    0.4805200172    0.2969611923
C655       C    0.1174699031    0.4452959427    0.2966205924
C656       C   -0.0667776138    0.5159870990    0.2976866486
C657       C    0.0613387686    0.5250501439    0.2974961543
C658       C    0.0792790945    0.3944149739    0.2962215650
C659       C   -0.0516241412    0.3851547849    0.2964162031
H660       H   -0.0451183776    0.5882893621    0.2983239821
H661       H    0.0219238500    0.5930319775    0.2982242980
H662       H   -0.0117963221    0.3157969300    0.2956741509
H663       H    0.0575595196    0.3207032121    0.2955710267
H664       H   -0.1322247710    0.4800942923    0.2974881892
H665       H   -0.1230723674    0.4117650082    0.2968220087
H666       H    0.1346295858    0.4989717612    0.2970914074
H667       H    0.1427829288    0.4305718029    0.2964267123
H671       H    0.0019562181    0.4835773196    0.2972318275
H672       H    0.0094254911    0.4245640872    0.2966574129
Zr669     Zr    0.1714619000    0.7076324434    0.2229756529
O670       O    0.1241835166    0.7289378956    0.2015539697
O671       O    0.1619950991    0.6533615322    0.2440532509
O672       O    0.1647620577    0.6764188153    0.1736296523
O673       O    0.1511656333    0.7501692730    0.3067921199
O674       O    0.2158564563    0.6750354319    0.1424996376
O675       O    0.1285959192    0.7184141979    0.2654727389
O676       O    0.2109008727    0.6337975711    0.2684788808
O677       O    0.2223740242    0.6822260281    0.2146924015
O678       O    0.2010833801    0.7069490079    0.2687628771
O679       O    0.2043450222    0.7340875273    0.1858447094
O680       O    0.1830556355    0.7588143384    0.2399117417
Zr681     Zr    0.2889398503    0.7560726996    0.2392336639
Zr682     Zr    0.2529486872    0.7054348598    0.1733338644
Zr683     Zr    0.2074551917    0.7582729335    0.2888793314
Zr684     Zr    0.2494684299    0.6764317900    0.2619327219
O685       O    0.1818834545    0.8091616487    0.2966361540
O686       O    0.2753718317    0.6304527988    0.2376559850
O687       O    0.2560575992    0.7296164347    0.2763719297
O688       O    0.2773482433    0.7048934549    0.2223014541
O689       O    0.2593204988    0.7567587854    0.1934503187
O690       O    0.2380298547    0.7814817651    0.2475207943
C691       C    0.1808222668    0.6322327985    0.2595031233
C692       C    0.1282729664    0.7346059252    0.2932066461
C693       C    0.1851820412    0.6685100560    0.1486724580
O694       O    0.2802584057    0.6553493424    0.1644300849
O695       O    0.3092382456    0.7135385203    0.1554210759
O696       O    0.3318079597    0.7452935953    0.1967404569
C697       C    0.3321330411    0.7291045184    0.1690104287
O698       O    0.1590499665    0.7944665818    0.1816778429
Zr699     Zr    0.2109354490    0.7872760033    0.2002804739
O700       O    0.2984087798    0.8103462611    0.2181599449
O701       O    0.2544586966    0.7293522110    0.1223818715
O702       O    0.2200810340    0.7947344116    0.1449278531
O703       O    0.1838591252    0.8342282398    0.2215663343
O704       O    0.2495030062    0.8299102222    0.1937343150
C705       C    0.2795816121    0.8314749948    0.2027100725
O706       O    0.3351964418    0.7371383892    0.2643435776
O707       O    0.2107163263    0.7366988087    0.3406561021
O708       O    0.2956418212    0.7872889780    0.2885835435
O709       O    0.2445474226    0.7886723614    0.3197135582
O710       O    0.2420316431    0.6672806589    0.3171592791
O711       O    0.2977111809    0.6685954280    0.2877615191
C712       C    0.2752218376    0.7951977373    0.3135407378
H713       H    0.1875938792    0.6948894045    0.2878988121
H714       H    0.3002209404    0.6910088279    0.2186505350
H715       H    0.2407942930    0.8060032859    0.2556227161
H716       H    0.1914966026    0.7359732094    0.1637450379
H717       H    0.2782543164    0.6129615679    0.2570720007
H718       H    0.2653050375    0.7107347303    0.1059598209
H719       H    0.2157049018    0.8204836843    0.1404730906
H720       H    0.2468261519    0.6414149697    0.3207621198
H721       H    0.1984204373    0.7547556638    0.3568112457
H722       H    0.1772200392    0.8116435391    0.3226796169
H723       H    0.1847620080    0.8521497516    0.2023242240
H724       H    0.3169462676    0.6631797636    0.2693450976
H725       H    0.3269753236    0.7285251012    0.2880510665
H726       H    0.1082216753    0.7089754940    0.2011471363
H727       H    0.1589285886    0.8137430059    0.1638114869
H728       H    0.1953072654    0.7163310188    0.3422560581
H729       H    0.3444292088    0.7152742033    0.2516207318
H730       H    0.2622425896    0.6372940110    0.1646829559
H731       H    0.2579029773    0.6200821500    0.2226668746
H732       H    0.1986181076    0.8438554169    0.2397308725
H733       H    0.2297000797    0.7326344018    0.1152475209
H734       H    0.1299837531    0.7341009254    0.1762141084
N736       N    0.3234217531    1.0157884510    0.4929506039
N737       N    0.3230581467    0.9644105393    0.4354577248
N738       N    0.3232171257    0.9032840076    0.4827388363
N739       N    0.3235811170    0.9548734435    0.5402509150
C740       C    0.3233066740    1.0384162071    0.4644526768
C741       C    0.3236091131    1.0329008072    0.5250556490
C742       C    0.3230288609    0.8849998405    0.4507672596
C743       C    0.3233289258    0.8795277364    0.5108944998
C744       C    0.3230027457    0.9937764549    0.4168448676
C745       C    0.3228956568    0.9369966704    0.4109449574
C746       C    0.3237363550    0.9803980623    0.5638460589
C747       C    0.3236366523    0.9234835798    0.5594262038
C748       C    0.3234356363    1.0736943035    0.4803258555
C749       C    0.3236126416    1.0704663634    0.5157943199
C750       C    0.3230234462    0.8492443208    0.4591802621
C751       C    0.3232081015    0.8458768721    0.4961816407
C752       C    0.3227976444    0.9881878259    0.3782178061
C753       C    0.3227391337    0.9530591171    0.3760818460
C754       C    0.3239086101    0.9679278113    0.6008339576
C755       C    0.3238396795    0.9329891229    0.5966100625
C756       C    0.3231184691    1.0315906526    0.4294573699
C757       C    0.3237612016    1.0198695258    0.5582485970
C758       C    0.3235311995    0.8894431256    0.5478224325
C759       C    0.3228744859    0.9014192164    0.4162296725
H760       H    0.3233988198    1.0987056268    0.4665007550
H761       H    0.3237351564    1.0925720596    0.5338961231
H762       H    0.3228991935    0.8273069070    0.4406940152
H763       H    0.3232471369    0.8209616716    0.5104151843
H764       H    0.3227142894    1.0070545549    0.3569198497
H765       H    0.3225928648    0.9388716151    0.3512373520
H766       H    0.3240530406    0.9826405519    0.6251798447
H767       H    0.3239266040    0.9145490143    0.6184930238
H771       H    0.3233728686    0.9889116550    0.4905110594
H772       H    0.3232658901    0.9300947022    0.4851723809
Zr769     Zr    0.1727953802    0.2104703618    0.7850753286
O770       O    0.1257266659    0.1926611879    0.8106596489
O771       O    0.1614598800    0.2651827814    0.7641781967
O772       O    0.1632230103    0.2428562585    0.8346990213
O773       O    0.1568164829    0.1681264324    0.7032958278
O774       O    0.2134864910    0.2411648256    0.8616230410
O775       O    0.1315404003    0.2020324607    0.7461907970
O776       O    0.2103270170    0.2810958318    0.7354704487
O777       O    0.2224549852    0.2325399134    0.7888854843
O778       O    0.2038038804    0.2085065873    0.7367782126
O779       O    0.2058831707    0.1822282356    0.8198104420
O780       O    0.1872333998    0.1581910332    0.7677065545
Zr781     Zr    0.2932646863    0.1536960426    0.7595970072
Zr782     Zr    0.2529575419    0.2077640582    0.8280093642
Zr783     Zr    0.2131048923    0.1563994938    0.7166589403
Zr784     Zr    0.2507404120    0.2358477069    0.7392881740
O785       O    0.1899940594    0.1070827597    0.7115512477
O786       O    0.2739239583    0.2804485950    0.7609595244
O787       O    0.2601779295    0.1819391927    0.7248544784
O788       O    0.2788290343    0.2059725188    0.7769617500
O789       O    0.2622585538    0.1556569647    0.8078900919
O790       O    0.2436074489    0.1316236386    0.7557828202
C791       C    0.1798328602    0.2848438775    0.7469279778
C792       C    0.1327594565    0.1854637779    0.7186246256
C793       C    0.1826124157    0.2497163268    0.8579111204
O794       O    0.2778140299    0.2561729631    0.8341301122
O795       O    0.3092459513    0.1960371196    0.8413724767
O796       O    0.3345220338    0.1621310913    0.7984775075
C797       C    0.3333053453    0.1786969217    0.8260396477
O798       O    0.1630765686    0.1249192964    0.8283728097
Zr799     Zr    0.2153220221    0.1283158451    0.8053801305
O800       O    0.3046025541    0.0989807707    0.7804901078
O801       O    0.2540676081    0.1843985981    0.8791495354
O802       O    0.2232147639    0.1209700053    0.8601188155
O803       O    0.1909191032    0.0828611105    0.7868104718
O804       O    0.2557354171    0.0830677202    0.8091978558
C805       C    0.2862295740    0.0793196745    0.7977403267
O806       O    0.3395238513    0.1691506492    0.7304300597
O807       O    0.2169092852    0.1770804824    0.6643233464
O808       O    0.3028394238    0.1213072935    0.7099692833
O809       O    0.2525759431    0.1229987264    0.6830452636
O810       O    0.2444808214    0.2447734333    0.6845162899
O811       O    0.2995148098    0.2400425343    0.7093555468
C812       C    0.2834500184    0.1144472252    0.6867571841
H813       H    0.1902897078    0.2212481670    0.7186077887
H814       H    0.3010291883    0.2183606639    0.7785766719
H815       H    0.2477265723    0.1067675385    0.7477044255
H816       H    0.1924397369    0.1815188083    0.8430182850
H817       H    0.2765889472    0.2975049175    0.7410964321
H818       H    0.2636212011    0.2025228440    0.8944945545
H819       H    0.2198627586    0.0955433213    0.8652152066
H820       H    0.2482222126    0.2702995935    0.6802369407
H821       H    0.2058689778    0.1596205392    0.6493594737
H822       H    0.1861904552    0.1045638883    0.6858903336
H823       H    0.1920744501    0.0651123471    0.8061909074
H824       H    0.3180199034    0.2443984439    0.7261440176
H825       H    0.3315820731    0.1780182834    0.7072837932
H826       H    0.1088049729    0.2137509598    0.8121745342
H827       H    0.1633063630    0.1058651543    0.8464750996
H828       H    0.2005821111    0.1985112067    0.6637791041
H829       H    0.3474203730    0.1905866972    0.7421705218
H830       H    0.2589383453    0.2754845973    0.8351747873
H831       H    0.2554998583    0.2922333506    0.7773002440
H832       H    0.2066849032    0.0719634463    0.7675069489
H833       H    0.2291813349    0.1829034559    0.8883751459
H834       H    0.1310369953    0.1874366796    0.8356036271
N836       N    0.0189048352    0.5084065417    0.7042736310
N837       N   -0.0371724521    0.4587572858    0.7039333543
N838       N    0.0115963456    0.3960865165    0.7034438947
N839       N    0.0676873738    0.4459469499    0.7037857314
C840       C   -0.0101251247    0.5319482008    0.7044628614
C841       C    0.0505163837    0.5245398528    0.7043774896
C842       C   -0.0198519024    0.3787758502    0.7033312184
C843       C    0.0403135715    0.3714256575    0.7032465167
C844       C   -0.0565069787    0.4887374014    0.7041654964
C845       C   -0.0609403682    0.4320739160    0.7037472832
C846       C    0.0905876876    0.4707673919    0.7039584148
C847       C    0.0876352944    0.4139229787    0.7035381166
C848       C    0.0048161474    0.5667740531    0.7047137740
C849       C    0.0403071654    0.5624382471    0.7046638093
C850       C   -0.0105360003    0.3427160454    0.7030589886
C851       C    0.0264889067    0.3381928499    0.7030068645
C852       C   -0.0949250683    0.4843444991    0.7041521627
C853       C   -0.0961562886    0.4492406093    0.7038923135
C854       C    0.1278326401    0.4571310164    0.7038385617
C855       C    0.1245121571    0.4222823640    0.7035816538
C856       C   -0.0448858996    0.5262038592    0.7044376665
C857       C    0.0839872231    0.5104599080    0.7042562374
C858       C    0.0769244298    0.3802033415    0.7032932910
C859       C   -0.0547520073    0.3962897632    0.7034786667
H860       H   -0.0096270525    0.5922453814    0.7049100092
H861       H    0.0578111710    0.5840067038    0.7048150688
H862       H   -0.0284281132    0.3213280374    0.7029092625
H863       H    0.0413373902    0.3128050447    0.7028110458
H864       H   -0.1166708108    0.5038965544    0.7043081387
H865       H   -0.1205946467    0.4358096205    0.7038049095
H866       H    0.1517597649    0.4711033869    0.7039302390
H867       H    0.1468309673    0.4031392256    0.7034284245
H871       H    0.0171588705    0.4815738025    0.7040754108
H872       H    0.0133380162    0.4228532628    0.7036416274
N870       N    0.5188017691    0.1588829288    0.0563377238
N871       N    0.4627094562    0.1585422042    0.0066791557
N872       N    0.5114561488    0.1580653494   -0.0559595660
N873       N    0.5675622726    0.1584076111   -0.0060898632
C874       C    0.4897803940    0.1590662445    0.0798634204
C875       C    0.5504178487    0.1589884079    0.0724789664
C876       C    0.4800029743    0.1579512064   -0.0732778377
C877       C    0.5401644263    0.1578739809   -0.0806043239
C878       C    0.4433853992    0.1587687567    0.0366454043
C879       C    0.4389332975    0.1583565942   -0.0200068849
C880       C    0.5904702327    0.1585799528    0.0187333531
C881       C    0.5874990283    0.1581658894   -0.0380992803
C882       C    0.5047328461    0.1593147840    0.1146868673
C883       C    0.5402214916    0.1592692294    0.1103650455
C884       C    0.4893066496    0.1576841643   -0.1093260706
C885       C    0.5263290816    0.1576366409   -0.1138346775
C886       C    0.4049668585    0.1587516977    0.0322394203
C887       C    0.4037240058    0.1584957640   -0.0028569781
C888       C    0.6277096762    0.1584657764    0.0051137088
C889       C    0.6243777006    0.1582125243   -0.0297282754
C890       C    0.4550186228    0.1590378833    0.0741076428
C891       C    0.5838831308    0.1588724678    0.0584144703
C892       C    0.5767772403    0.1579237753   -0.0718152125
C893       C    0.4451096053    0.1580927890   -0.0557806740
H894       H    0.4902984892    0.1595064887    0.1401471408
H895       H    0.5577322047    0.1594199281    0.1319350354
H896       H    0.4714078994    0.1575349355   -0.1307157947
H897       H    0.5411687392    0.1574453877   -0.1392112983
H898       H    0.3832281837    0.1589030219    0.0517790846
H899       H    0.3792818264    0.1584072178   -0.0162938817
H900       H    0.6516408158    0.1585584770    0.0190916844
H901       H    0.6466895639    0.1580639629   -0.0488589054
H905       H    0.5170469341    0.1586876128    0.0295104159
H906       H    0.5132066680    0.1582601850   -0.0291982377
N904       N    0.4977309866    0.7506405531    0.0578794921
N905       N    0.5569621618    0.7500438413    0.0052648877
N906       N    0.5119757634    0.7495912489   -0.0549700618
N907       N    0.4527178060    0.7501899335   -0.0021432844
C908       C    0.5253579226    0.7507836335    0.0799526110
C909       C    0.4650723469    0.7508681201    0.0756683895
C910       C    0.5445434110    0.7493532862   -0.0739294658
C911       C    0.4847310758    0.7494371096   -0.0781800563
C912       C    0.5744806451    0.7502703962    0.0342862546
C913       C    0.5824145103    0.7497391638   -0.0226829441
C914       C    0.4282493446    0.7504753306    0.0238942615
C915       C    0.4347109061    0.7499461615   -0.0331795672
C916       C    0.5082449291    0.7511408519    0.1155977421
C917       C    0.4729622240    0.7511902984    0.1130903608
C918       C    0.5374349917    0.7490457370   -0.1095565321
C919       C    0.5006274008    0.7490973206   -0.1121722801
C920       C    0.6132333804    0.7501334732    0.0279018505
C921       C    0.6166306806    0.7498081770   -0.0073131164
C922       C    0.3917831387    0.7504438223    0.0121643894
C923       C    0.3972574386    0.7501156153   -0.0229029745
C924       C    0.5605305775    0.7506435027    0.0724039623
C925       C    0.4324138699    0.7508230505    0.0632992908
C926       C    0.4475182681    0.7496097339   -0.0674983477
C927       C    0.5784218362    0.7494262805   -0.0581956267
H928       H    0.5211419091    0.7513383223    0.1403570267
H929       H    0.4540995114    0.7514322781    0.1355926285
H930       H    0.5566753326    0.7488044377   -0.1318981658
H931       H    0.4873193148    0.7489016359   -0.1368269824
H932       H    0.6338099405    0.7502582514    0.0463564442
H933       H    0.6419376215    0.7496234504   -0.0220253068
H934       H    0.3669549062    0.7506322326    0.0273922712
H935       H    0.3760816504    0.7499960314   -0.0409184809
H939       H    0.5011339985    0.7503898791    0.0309202508
H940       H    0.5085811209    0.7498413063   -0.0280771247
C1407      C    0.4003982178    0.1764009052    0.8503592122
C1408      C    0.3640772039    0.1730260514    0.8585662111
C1409      C    0.3536301897    0.1649395005    0.8938735450
C1410      C    0.3780169838    0.1603939918    0.9199007930
C1411      C    0.4143377467    0.1637636593    0.9116927626
C1412      C    0.4247847608    0.1718502102    0.8763854287
F1413      F    0.4591201279    0.1754883309    0.8665597532
H1414      H    0.4097875852    0.1826127834    0.8235097134
H1415      H    0.3686273654    0.1541769273    0.9467492603
F1416      F    0.3192948227    0.1613013798    0.9036992205
C1397      C    0.1192024330    0.3036289771    0.7460316977
C1398      C    0.1551501818    0.3077159296    0.7364621594
C1399      C    0.1635487227    0.3371322358    0.7153465551
C1400      C    0.1375544576    0.3614210883    0.7041940727
C1401      C    0.1016071082    0.3573312894    0.7137591094
C1402      C    0.0932085673    0.3279149832    0.7348747138
F1403      F    0.0593478401    0.3222798592    0.7450745220
H1404      H    0.1113664635    0.2813761213    0.7622865989
H1405      H    0.1453908265    0.3836710977    0.6879346700
F1406      F    0.1974094499    0.3427673597    0.7051467469
C1387      C    0.3354198918    1.0465531524    0.6208452399
C1388      C    0.3130273556    1.0450531692    0.5924671755
C1389      C    0.2811285207    1.0661515270    0.5949322487
C1390      C    0.2717941957    1.0877676395    0.6241588647
C1391      C    0.2941838644    1.0892635817    0.6525386055
C1392      C    0.3260826993    1.0681652240    0.6500735324
F1393      F    0.3488493274    1.0682330250    0.6762328127
H1394      H    0.3603150843    1.0307811160    0.6202054565
H1395      H    0.2468961357    1.1035356350    0.6248003246
F1396      F    0.2583618926    1.0660837260    0.5687729683
C1377      C    0.3672015543    0.7071600238    0.1194754960
C1378      C    0.3560504973    0.7342844919    0.1437978178
C1379      C    0.3717533771    0.7670677037    0.1397410077
C1380      C    0.3973419056    0.7727686383    0.1128304839
C1381      C    0.4084964137    0.7456430769    0.0885119017
C1382      C    0.3927935338    0.7128598652    0.0925687118
F1383      F    0.4021474149    0.6856508443    0.0702688590
H1384      H    0.3558922824    0.6813983775    0.1214841483
H1385      H    0.4086546286    0.7985291914    0.1108255712
F1386      F    0.3623994961    0.7942767246    0.1620408606
C1367      C    0.2846547867    0.8171102205    0.3772640671
C1368      C    0.2877248429    0.8230679137    0.3404840523
C1369      C    0.3023516383    0.8547845889    0.3288356247
C1370      C    0.3134462892    0.8795042653    0.3525069518
C1371      C    0.3103714806    0.8735490400    0.3892863579
C1372      C    0.2957446853    0.8418323647    0.4009347855
F1373      F    0.2919810817    0.8343169389    0.4357712536
H1374      H    0.2735448548    0.7930523701    0.3875746201
H1375      H    0.3245514688    0.9035645835    0.3421957901
F1376      F    0.3061152419    0.8623000147    0.2939991566
C1357      C    0.0944667789    0.5738210558    0.2551437116
C1358      C    0.0942477361    0.5545711285    0.2870318521
C1359      C    0.1214475438    0.5600228019    0.3100314810
C1360      C    0.1476913734    0.5834662352    0.3018572663
C1361      C    0.1479132992    0.6027118140    0.2699674254
C1362      C    0.1207134915    0.5972601406    0.2469677966
F1363      F    0.1192089834    0.6147690773    0.2159556437
H1364      H    0.0740624413    0.5705490982    0.2365217213
H1365      H    0.1680985940    0.5867338443    0.3204775563
F1366      F    0.1229520520    0.5425138651    0.3410436339
C1347      C    0.6292246493    0.1618610346    0.1144559933
C1348      C    0.6266015740    0.1588203257    0.0775858816
C1349      C    0.6583746553    0.1557513049    0.0563439311
C1350      C    0.6912721991    0.1556923134    0.0709173551
C1351      C    0.6938950665    0.1587381874    0.1077862150
C1352      C    0.6621219851    0.1618072082    0.1290281656
F1353      F    0.6625604076    0.1648181839    0.1645503788
H1354      H    0.6054896766    0.1642953173    0.1319704940
H1355      H    0.7150069639    0.1532631958    0.0534016027
F1356      F    0.6579362328    0.1527403293    0.0208217178
C1337      C    0.9211253390    0.2793165586    0.2769743761
C1338      C    0.9014459726    0.2818083459    0.2464858610
C1339      C    0.8960959529    0.3156042545    0.2312901513
C1340      C    0.9096062586    0.3455955976    0.2456094086
C1341      C    0.9292807658    0.3431046111    0.2761002679
C1342      C    0.9346307855    0.3093087025    0.2912959775
F1343      F    0.9532159209    0.3048770425    0.3205203954
H1344      H    0.9259786012    0.2538455487    0.2896797429
H1345      H    0.9047481372    0.3710674083    0.2329063859
F1346      F    0.8775108175    0.3200359145    0.2020657335
C1327      C    0.8409139492    1.0160389853    0.3638413935
C1328      C    0.8250674396    1.0298711635    0.3958578970
C1329      C    0.8109141991    1.0651625155    0.3957219967
C1330      C    0.8123689821    1.0858487994    0.3652802140
C1331      C    0.8282197750    1.0720185320    0.3332657512
C1332      C    0.8423730156    1.0367271800    0.3334016515
F1333      F    0.8579543414    1.0216857115    0.3037214862
H1334      H    0.8522130909    0.9889623483    0.3625788141
H1335      H    0.8010741237    1.1129273473    0.3665448342
F1336      F    0.7953328732    1.0802039840    0.4254021621
C1317      C    0.6592779401    0.7440034984    0.8745970520
C1318      C    0.6871336937    0.7529295179    0.8954172448
C1319      C    0.6788094866    0.7606439845    0.9315007081
C1320      C    0.6444688231    0.7595777463    0.9463293245
C1321      C    0.6166128426    0.7506569849    0.9255083485
C1322      C    0.6249370497    0.7429425183    0.8894248852
F1323      F    0.5996294530    0.7341802545    0.8678545010
H1324      H    0.6643378157    0.7378342180    0.8466273216
H1325      H    0.6394087206    0.7657522849    0.9742982717
F1326      F    0.7041170833    0.7694062484    0.9530710923
C1307      C    0.9112541531    0.6254270037    0.7188621316
C1308      C    0.9040679349    0.6277137635    0.7557624428
C1309      C    0.9131737792    0.5976723830    0.7761253035
C1310      C    0.9286937587    0.5667508932    0.7606818028
C1311      C    0.9358750329    0.5644624801    0.7237817411
C1312      C    0.9267691886    0.5945038606    0.7034188804
F1313      F    0.9328625252    0.5942690570    0.6679240661
H1314      H    0.9047251235    0.6478761711    0.7020058899
H1315      H    0.9352178444    0.5443000725    0.7775382940
F1316      F    0.9070804427    0.5979071866    0.8116201178
C1297      C    0.8586312449    0.8351815169    0.6577092892
C1298      C    0.8275967863    0.8280166221    0.6779981223
C1299      C    0.7950234791    0.8398130575    0.6646601904
C1300      C    0.7932252707    0.8578883092    0.6326842167
C1301      C    0.8242592942    0.8650575703    0.6123984349
C1302      C    0.8568326014    0.8532611349    0.6257363669
F1303      F    0.8876544571    0.8591636717    0.6077592875
H1304      H    0.8844016928    0.8266344260    0.6668555426
H1305      H    0.7674543876    0.8664397664    0.6235410146
F1306      F    0.7642016233    0.8339105207    0.6826372697
C1287      C    0.6960188364    0.3264218543    1.0783934783
C1288      C    0.7041652745    0.3615757469    1.0852191606
C1289      C    0.7220658947    0.3679618873    1.1160767179
C1290      C    0.7314882729    0.3407928698    1.1391522488
C1291      C    0.7233373815    0.3056405975    1.1323293616
C1292      C    0.7054367613    0.2992544572    1.1014718043
F1293      F    0.6967604161    0.2662558602    1.0932053489
H1294      H    0.6822354228    0.3201303978    1.0549434951
H1295      H    0.7452672332    0.3470859466    1.1626050271
F1296      F    0.7307422399    0.4009604843    1.1243431733
C1277      C    0.7019037137    0.6267896293    0.8957636530
C1278      C    0.7239927685    0.6180322729    0.8654927991
C1279      C    0.7347317389    0.5820298390    0.8601201853
C1280      C    0.7240985213    0.5558582755    0.8836363334
C1281      C    0.7020141773    0.5646161591    0.9139092387
C1282      C    0.6912752070    0.6006185930    0.9192818525
F1283      F    0.6701174656    0.6109983426    0.9476880493
H1284      H    0.6929030880    0.6541841685    0.9010871072
H1285      H    0.7331038578    0.5284642635    0.8783149305
F1286      F    0.7558894803    0.5716500894    0.8317139885
C1267      C    0.2052702197    0.3437049801   -0.1057272957
C1268      C    0.1892201423    0.3445414298   -0.0712195548
C1269      C    0.1711180273    0.3146565494   -0.0598519744
C1270      C    0.1689856104    0.2852579272   -0.0816408479
C1271      C    0.1850309407    0.2844237070   -0.1161496660
C1272      C    0.2031330557    0.3143085874   -0.1275172464
F1273      F    0.2191530721    0.3154078961   -0.1602286648
H1274      H    0.2195396437    0.3660994533   -0.1157305853
H1275      H    0.1547114393    0.2628656834   -0.0716386356
F1276      F    0.1550980109    0.3135572406   -0.0271405561
C1257      C    0.1957375765    0.6254053094    0.0916442034
C1258      C    0.1867731589    0.6286252802    0.1281956078
C1259      C    0.1792312310    0.5974396550    0.1468966832
C1260      C    0.1804989818    0.5645393259    0.1301928026
C1261      C    0.1894581486    0.5613202575    0.0936411986
C1262      C    0.1970000765    0.5925058828    0.0749401232
F1263      F    0.2057871165    0.5914769432    0.0398732345
H1264      H    0.2017789998    0.6486740933    0.0760499559
H1265      H    0.1744523077    0.5412714444    0.1457868504
F1266      F    0.1704441910    0.5984685946    0.1819635719
C1247      C    0.3856754887    1.0681653714    0.7895729526
C1248      C    0.3917983683    1.0318622558    0.7968033132
C1249      C    0.3620312862    1.0118724865    0.8043105557
C1250      C    0.3277404976    1.0271077220    0.8046513246
C1251      C    0.3216180336    1.0634111387    0.7974262238
C1252      C    0.3513851156    1.0834009081    0.7899189813
F1253      F    0.3475754630    1.1183184133    0.7827420698
H1254      H    0.4077557228    1.0847162650    0.7836314979
H1255      H    0.3056606790    1.0105571296    0.8105980392
F1256      F    0.3658409388    0.9769549813    0.8114874673
C1237      C    0.5918523008    0.8352208017    0.7770447872
C1238      C    0.5984749084    0.8675264989    0.7932871081
C1239      C    0.6328457538    0.8715489094    0.8045122706
C1240      C    0.6594765941    0.8448138101    0.7998798549
C1241      C    0.6528526470    0.8125068814    0.7836425771
C1242      C    0.6184818016    0.8084844709    0.7724174146
F1243      F    0.6101841403    0.7782759492    0.7566506350
H1244      H    0.5657731469    0.8308241581    0.7679286206
H1245      H    0.6855544086    0.8492092222    0.8090010647
F1246      F    0.6411434152    0.9017574311    0.8202790502
C1227      C    0.3948592358    0.6850017095    0.8624473379
C1228      C    0.4011352901    0.7001898481    0.8288374375
C1229      C    0.4214560386    0.7302927105    0.8268670876
C1230      C    0.4349658239    0.7447286507    0.8568012446
C1231      C    0.4286854969    0.7295438942    0.8904111156
C1232      C    0.4083647485    0.6994410318    0.8923814655
F1233      F    0.4012708505    0.6834674745    0.9236708629
H1234      H    0.3793392243    0.6617617463    0.8653591462
H1235      H    0.4504815628    0.7679719960    0.8538894069
F1236      F    0.4285499366    0.7462662678    0.7955776902
C1217      C    0.1916261155    0.5241177068    0.7021756548
C1218      C    0.1938779141    0.5610572957    0.7050198182
C1219      C    0.1619171650    0.5820515066    0.7076137398
C1220      C    0.1291914867    0.5671751612    0.7074040320
C1221      C    0.1269399389    0.5302367898    0.7045546964
C1222      C    0.1589006880    0.5092425790    0.7019607748
F1223      F    0.1588183097    0.4736714961    0.6991618685
H1224      H    0.2155177793    0.5067861726    0.7001063283
H1225      H    0.1053000737    0.5845079129    0.7094681864
F1226      F    0.1619995433    0.6176225895    0.7104126461
C1207      C    0.3058267471    0.8160104735    0.6283207063
C1208      C    0.3286746852    0.7865882371    0.6184164220
C1209      C    0.3498122176    0.7891156328    0.5867471519
C1210      C    0.3484143862    0.8193905027    0.5658092976
C1211      C    0.3255631453    0.8488100662    0.5757107498
C1212      C    0.3044256129    0.8462826706    0.6073800199
F1213      F    0.2819134780    0.8734072950    0.6185521453
H1214      H    0.2889873801    0.8153673945    0.6525111585
H1215      H    0.3652504504    0.8200309089    0.5416160133
F1216      F    0.3723243524    0.7619910084    0.5755750265
C1197      C    0.1987820772    0.5979197129    0.8800369088
C1198      C    0.2231150151    0.5866114391    0.8522820086
C1199      C    0.2374444671    0.5514201174    0.8533241467
C1200      C    0.2281237667    0.5284400553    0.8805987027
C1201      C    0.2037953016    0.5397497329    0.9083556832
C1202      C    0.1894658496    0.5749410546    0.9073135451
F1203      F    0.1660021353    0.5876351083    0.9329841818
H1204      H    0.1869909470    0.6248144566    0.8804386130
H1205      H    0.2399193697    0.5015467154    0.8801990788
F1206      F    0.2609081813    0.5387260637    0.8276535099
C1187      C    0.4210592356    0.8216902133    0.7778871355
C1188      C    0.4113846094    0.8572642319    0.7866434898
C1189      C    0.3753100301    0.8682995520    0.7858936126
C1190      C    0.3499378332    0.8451831102    0.7768857414
C1191      C    0.3596130521    0.8096112321    0.7681245469
C1192      C    0.3956876315    0.7985759120    0.7688744241
F1193      F    0.4069224580    0.7648958563    0.7608030355
H1194      H    0.4485470471    0.8118916036    0.7780754474
H1195      H    0.3224506145    0.8549838604    0.7766925892
F1196      F    0.3640752035    0.9019796077    0.7939650011
C1177      C    0.0635908701    0.7031869471    0.3729567186
C1178      C    0.0855298631    0.6798845459    0.3922035118
C1179      C    0.1210761392    0.6742795644    0.3795618403
C1180      C    0.1343313185    0.6909759263    0.3492389328
C1181      C    0.1123914368    0.7142737748    0.3299896948
C1182      C    0.0768451607    0.7198787562    0.3426313664
F1183      F    0.0542710733    0.7418393828    0.3255781388
H1184      H    0.0359765899    0.7083861127    0.3816235196
H1185      H    0.1619447099    0.6857722080    0.3405696870
F1186      F    0.1436502265    0.6523189378    0.3966150678
C1167      C   -0.0909929360    0.7034441163    0.6035946244
C1168      C   -0.0784710202    0.6677746547    0.5999266830
C1169      C   -0.0946792632    0.6427335667    0.6221314154
C1170      C   -0.1220494457    0.6525336185    0.6468590579
C1171      C   -0.1345675302    0.6882030405    0.6505304555
C1172      C   -0.1183592872    0.7132441284    0.6283257231
F1173      F   -0.1289543242    0.7478911396    0.6303326410
H1174      H   -0.0793610789    0.7237590955    0.5870864433
H1175      H   -0.1336774716    0.6322185997    0.6633706952
F1176      F   -0.0840842262    0.6080865556    0.6201244975
C1157      C    0.0945269905    0.6782066400    0.6244774955
C1158      C    0.1063826857    0.6648926145    0.5908427146
C1159      C    0.1430168348    0.6572868857    0.5846411546
C1160      C    0.1668597298    0.6626115065    0.6105486410
C1161      C    0.1550047709    0.6759301405    0.6441809261
C1162      C    0.1183706217    0.6835358693    0.6503824861
F1163      F    0.1050779097    0.6963579062    0.6819610646
H1164      H    0.0665265282    0.6844837569    0.6305654396
H1165      H    0.1948609283    0.6563389981    0.6044582012
F1166      F    0.1563095469    0.6444648488    0.5530625762
C1147      C    0.6558520217    0.7260817847    0.1128739736
C1148      C    0.6477590327    0.7235421484    0.1495584530
C1149      C    0.6120875891    0.7295953661    0.1616143759
C1150      C    0.5856038676    0.7377940627    0.1384235590
C1151      C    0.5936975082    0.7403387376    0.1017404631
C1152      C    0.6293689518    0.7342855200    0.0896845402
F1153      F    0.6391118473    0.7362594172    0.0549109062
H1154      H    0.6829698452    0.7216481279    0.1022618404
H1155      H    0.5584866956    0.7422327581    0.1490370758
F1156      F    0.6023446936    0.7276214688    0.1963880100
C1137      C    0.8880946646    0.6040549924    0.2970898618
C1138      C    0.8565461771    0.5970525373    0.2811232910
C1139      C    0.8519379805    0.5617824139    0.2710280211
C1140      C    0.8773954562    0.5346503819    0.2764809371
C1141      C    0.9089455083    0.5416536751    0.2924424325
C1142      C    0.9135537049    0.5769237986    0.3025377023
F1143      F    0.9430967660    0.5856302364    0.3179778850
H1144      H    0.8928987553    0.6308251600    0.3053462414
H1145      H    0.8725929301    0.5078810524    0.2682194820
F1146      F    0.8223949194    0.5530759760    0.2555878385
C1127      C    0.8073983162    0.7827391088    0.3987022207
C1128      C    0.7876623082    0.7945301543    0.3700809471
C1129      C    0.7793994121    0.8312343702    0.3674754460
C1130      C    0.7901750514    0.8552055486    0.3920786127
C1131      C    0.8099061736    0.8434141500    0.4207021380
C1132      C    0.8181690697    0.8067099341    0.4233076390
F1133      F    0.8369895340    0.7934730279    0.4500105160
H1134      H    0.8144401982    0.7546885550    0.4018785800
H1135      H    0.7831282836    0.8832557492    0.3889045050
F1136      F    0.7605789478    0.8444712763    0.3407725691
C1117      C    0.7156958668    0.5854248307    0.1499142587
C1118      C    0.6870142914    0.5816079930    0.1746439753
C1119      C    0.6599056256    0.5601802342    0.1648447879
C1120      C    0.6611107539    0.5432825185    0.1320518174
C1121      C    0.6897892042    0.5471035153    0.1073206735
C1122      C    0.7168978701    0.5685312740    0.1171198609
F1123      F    0.7451956382    0.5734142911    0.0948038156
H1124      H    0.7372639569    0.6016708114    0.1562141520
H1125      H    0.6395395388    0.5270406969    0.1257504968
F1126      F    0.6316078574    0.5552972172    0.1871608331
C1107      C    0.8558570393    0.6590426606    0.3752569376
C1108      C    0.8249537166    0.6572115710    0.3974589276
C1109      C    0.8288790949    0.6559696742    0.4343035047
C1110      C    0.8618943626    0.6565145117    0.4485524571
C1111      C    0.8927974258    0.6583403155    0.4263506718
C1112      C    0.8888720476    0.6595822122    0.3895060948
F1113      F    0.9172817556    0.6613593145    0.3666064043
H1114      H    0.8542284527    0.6600515525    0.3466572874
H1115      H    0.8635226897    0.6555003340    0.4771523120
F1116      F    0.8004693868    0.6541925719    0.4572031952
C1097      C    0.3752678193    0.8693544000    0.2355549891
C1098      C    0.3925565848    0.8808972014    0.2040690134
C1099      C    0.3752435638    0.8772846570    0.1723372118
C1100      C    0.3423028373    0.8628984798    0.1717719976
C1101      C    0.3250168613    0.8513511693    0.2032565990
C1102      C    0.3423298822    0.8549637136    0.2349884007
F1103      F    0.3273842226    0.8444880842    0.2661763486
H1104      H    0.3875253593    0.8715725148    0.2607128853
H1105      H    0.3300480868    0.8606758558    0.1466127271
F1106      F    0.3901892234    0.8877602864    0.1411492639
C1087      C    0.6327233618    1.0864281177    0.2499694754
C1088      C    0.6548845032    1.0984783393    0.2219172836
C1089      C    0.6519821992    1.0833628905    0.1881881513
C1090      C    0.6282229020    1.0574853826    0.1824600806
C1091      C    0.6060659504    1.0454317463    0.2105127716
C1092      C    0.6089682544    1.0605471951    0.2442419039
F1093      F    0.5885998606    1.0503226649    0.2723706839
H1094      H    0.6339577711    1.0972581747    0.2764804793
H1095      H    0.6269926825    1.0466519110    0.1559495759
F1096      F    0.6723505929    1.0935874208    0.1600593713
C1077      C    0.6220838208    0.8406752154    0.2303807111
C1078      C    0.5856329114    0.8466477283    0.2258696588
C1079      C    0.5630044119    0.8207903907    0.2390363124
C1080      C    0.5758537036    0.7903845016    0.2559107005
C1081      C    0.6123043743    0.7844096849    0.2604169946
C1082      C    0.6349328737    0.8102670225    0.2472503410
F1083      F    0.6701531470    0.8063520780    0.2506081705
H1084      H    0.6406213419    0.8598268161    0.2206898935
H1085      H    0.5573159437    0.7712305970    0.2655967599
F1086      F    0.5277841386    0.8247053352    0.2356784829
C1067      C    0.6555666455    0.1554199082    0.8670716532
C1068      C    0.6552434685    0.1906311095    0.8548851320
C1069      C    0.6276246894    0.2142750321    0.8682673238
C1070      C    0.6014931551    0.2035714339    0.8926147929
C1071      C    0.6018134770    0.1683597116    0.9047970502
C1072      C    0.6294322562    0.1447157891    0.8914148584
F1073      F    0.6314658395    0.1105815244    0.9018763437
H1074      H    0.6763085601    0.1361729529    0.8575464387
H1075      H    0.5807483854    0.2228178682    0.9021357436
F1076      F    0.6255911061    0.2484092968    0.8578058385
C1057      C    0.8970130250    0.3038764127    0.7005904000
C1058      C    0.8642959559    0.3115469171    0.7192378791
C1059      C    0.8575391225    0.3461703324    0.7327632408
C1060      C    0.8820462171    0.3720508422    0.7280555572
C1061      C    0.9147646599    0.3643789617    0.7094129623
C1062      C    0.9215214932    0.3297555464    0.6958876007
F1063      F    0.9522830393    0.3204703512    0.6777462556
H1064      H    0.9034795179    0.2775630094    0.6896452719
H1065      H    0.8755810979    0.3983628694    0.7390055696
F1066      F    0.8267775764    0.3554555275    0.7509045859
C1047      C    0.8118382997    0.1103867426    0.6029713836
C1048      C    0.7941191143    0.1065777753    0.6363667155
C1049      C    0.7860288400    0.0720813548    0.6469814437
C1050      C    0.7950602882    0.0426664954    0.6255250952
C1051      C    0.8127744675    0.0464760726    0.5921283080
C1052      C    0.8208647418    0.0809724931    0.5815135798
F1053      F    0.8378042449    0.0866691773    0.5498810088
H1054      H    0.8186646047    0.1364400072    0.5935804733
H1055      H    0.7882289771    0.0166138407    0.6349145501
F1056      F    0.7690893369    0.0663846706    0.6786140147
C1037      C    0.7179092598    0.3410143328    0.8462159214
C1038      C    0.6855919823    0.3374882942    0.8303089317
C1039      C    0.6555782407    0.3569263062    0.8452104178
C1040      C    0.6574446435    0.3788712586    0.8745345202
C1041      C    0.6897602040    0.3823931405    0.8904442790
C1042      C    0.7197739455    0.3629551285    0.8755427930
F1043      F    0.7516250036    0.3650058708    0.8893571999
H1044      H    0.7418130560    0.3265747973    0.8357107346
H1045      H    0.6335391303    0.3933066375    0.8850424761
F1046      F    0.6237271827    0.3548755640    0.8313960108
C1027      C    0.5899834132    0.1091304646    0.7295655025
C1028      C    0.6103425798    0.1293765749    0.7511202448
C1029      C    0.6140949032    0.1180272316    0.7862939649
C1030      C    0.5984116831    0.0879952398    0.7995562961
C1031      C    0.5780486878    0.0677525826    0.7780035172
C1032      C    0.5742963644    0.0791019259    0.7428297971
F1033      F    0.5551831609    0.0610395728    0.7206347304
H1034      H    0.5862982137    0.1167861333    0.7022479031
H1035      H    0.6020930539    0.0803430243    0.8268758589
F1036      F    0.6332081067    0.1360895847    0.8084890316
C1017      C    0.4022238183    0.1735465584    0.1685066350
C1018      C    0.4041395942    0.2100595391    0.1749647366
C1019      C    0.4223326672    0.2300416463    0.1490957524
C1020      C    0.4379338292    0.2146003851    0.1182189544
C1021      C    0.4360225104    0.1780872468    0.1117634855
C1022      C    0.4178294374    0.1581051396    0.1376324698
F1023      F    0.4149102152    0.1229934784    0.1332668260
H1024      H    0.3884886923    0.1569925020    0.1876474538
H1025      H    0.4516734123    0.2311542839    0.0990807683
F1026      F    0.4252518894    0.2651533076    0.1534613961
C1007      C    0.1809234387    0.3853211174    0.2948762705
C1008      C    0.1876886077    0.3486770858    0.2997058447
C1009      C    0.1583196228    0.3274589539    0.3033466818
C1010      C    0.1238018182    0.3418411294    0.3022593609
C1011      C    0.1170366847    0.3784850764    0.2974350932
C1012      C    0.1464056695    0.3997032083    0.2937942561
F1013      F    0.1419755416    0.4350140148    0.2890861710
H1014      H    0.2026774118    0.4028083814    0.2919390542
H1015      H    0.1020478806    0.3243537808    0.3052018837
F1016      F    0.1627497507    0.2921481474    0.3080547669
C997       C    0.3527328771    0.0874820601    0.4151047935
C998       C    0.3247342311    0.0652318520    0.4107434667
C999       C    0.2985030237    0.0767429861    0.3876884721
C1000      C    0.2999015180    0.1088272015    0.3697486146
C1001      C    0.3278968341    0.1310792750    0.3741139078
C1002      C    0.3541280415    0.1195681409    0.3971689025
F1003      F    0.3817375262    0.1394774540    0.4026589762
H1004      H    0.3736132387    0.0797916812    0.4325952382
H1005      H    0.2790178265    0.1165194458    0.3522621364
F1006      F    0.2708935390    0.0568336730    0.3821983984
C987       C    0.2359483295    0.3544153837    0.1632171221
C988       C    0.2240801641    0.3197853363    0.1646364238
C989       C    0.2008867786    0.3101510283    0.1388717578
C990       C    0.1899216104    0.3337148367    0.1128653055
C991       C    0.2017854568    0.3683457710    0.1114492650
C992       C    0.2249788423    0.3779800790    0.1372139311
F993       F    0.2374404684    0.4106961809    0.1375139648
H994       H    0.2538607236    0.3631229635    0.1824946327
H995       H    0.1720048973    0.3250081438    0.0935910562
F996       F    0.1884251524    0.2774349264    0.1385717241
C977       C    0.3864912655    0.0446610726    0.2166022037
C978       C    0.4217480559    0.0545859676    0.2133197366
C979       C    0.4280745224    0.0901501841    0.2207369307
C980       C    0.4007509730    0.1147968925    0.2309446015
C981       C    0.3654943999    0.1048733734    0.2342219368
C982       C    0.3591679334    0.0693091569    0.2268047427
F983       F    0.3260779945    0.0578738295    0.2293842313
H984       H    0.3802398735    0.0175461058    0.2111740762
H985       H    0.4070025823    0.1419132352    0.2363675971
F986       F    0.4611644613    0.1015855115    0.2181574420
C967       C   -0.1183590762    0.2225479143    0.4150808118
C968       C   -0.0880343311    0.2396261613    0.4027011126
C969       C   -0.0845486599    0.2472882830    0.3662263025
C970       C   -0.1099220980    0.2384538579    0.3430320353
C971       C   -0.1402435957    0.2213713221    0.3554106588
C972       C   -0.1437292669    0.2137092003    0.3918854690
F973       F   -0.1720682579    0.1973930679    0.4056541585
H974       H   -0.1222673474    0.2160680566    0.4429839452
H975       H   -0.1060105793    0.2449294268    0.3151278262
F976       F   -0.0562096688    0.2636044154    0.3524576129
C957       C    0.0733573535    0.2079484227    0.6736284624
C958       C    0.1103932155    0.2042336217    0.6751014925
C959       C    0.1309634878    0.2141925159    0.6449132589
C960       C    0.1155901916    0.2272424900    0.6146215978
C961       C    0.0785551147    0.2309522902    0.6131467858
C962       C    0.0579848424    0.2209933960    0.6433350194
F963       F    0.0223511933    0.2238142414    0.6438640159
H964       H    0.0563397912    0.2006311287    0.6962225116
H965       H    0.1326085389    0.2345547833    0.5920257667
F966       F    0.1665971368    0.2113716706    0.6443842624
C947       C   -0.1480073930    0.2497797339    0.6303613451
C948       C   -0.1776770244    0.2507773081    0.6095227641
C949       C   -0.1714376342    0.2512737939    0.5724234776
C950       C   -0.1373753210    0.2508045592    0.5566399003
C951       C   -0.1077065909    0.2498122580    0.5774781883
C952       C   -0.1139459811    0.2493157722    0.6145774748
F953       F   -0.0868253163    0.2483583529    0.6362289105
H954       H   -0.1514254765    0.2493658329    0.6590940114
H955       H   -0.1339581387    0.2512237333    0.5279069410
F956       F   -0.1985582989    0.2522312133    0.5507720419
C937       C    0.0907849723    0.2387616282    0.3781947302
C938       C    0.0989288085    0.2462831721    0.4131975592
C939       C    0.1348550829    0.2489761636    0.4199495318
C940       C    0.1615345895    0.2444329690    0.3932737185
C941       C    0.1533912679    0.2369064514    0.3582727263
C942       C    0.1174649936    0.2342134598    0.3515207537
F943       F    0.1076586838    0.2270710554    0.3186392260
H944       H    0.0634740007    0.2364185676    0.3716351969
H945       H    0.1888460757    0.2467710558    0.3998350886
F946       F    0.1446613926    0.2561185680    0.4528310595
loop_
_geom_bond_atom_site_label_1
_geom_bond_atom_site_label_2
_geom_bond_distance
_geom_bond_site_symmetry_2
_ccdc_geom_bond_type
