data_she_v1-4c_tetracenter_porphyrin_Ch_v2-6c_Zr_1_Ch_1-2B_2F_Chnobond
_audit_creation_date              2024-10-29
_audit_creation_method            'tobacco_3.0'
_symmetry_space_group_name_H-M    'P1'
_symmetry_Int_Tables_number       1
_symmetry_cell_setting            triclinic
loop_
_symmetry_equiv_pos_as_xyz
  x,y,z
_cell_length_a                    49.46117073948284
_cell_length_b                    49.310174956823815
_cell_length_c                    49.317327090180584
_cell_angle_alpha                 90.01178105519843
_cell_angle_beta                  86.91507577031358
_cell_angle_gamma                 86.88645223132625
loop_
_atom_site_label
_atom_site_type_symbol
_atom_site_fract_x
_atom_site_fract_y
_atom_site_fract_z
N2         N   -0.0050115462    0.2496744804    0.5423065794
N3         N   -0.0397627091    0.2498796994    0.4966482150
N4         N    0.0052011593    0.2503378357    0.4560927406
N5         N    0.0399331209    0.2501313695    0.5019131992
C6         C   -0.0298597270    0.2494845497    0.5560109038
C7         C    0.0162291855    0.2496300931    0.5590556980
C8         C   -0.0157542667    0.2503895759    0.4384741857
C9         C    0.0299728489    0.2505339768    0.4414950784
C10        C   -0.0583037962    0.2496671919    0.5166196339
C11        C   -0.0537062351    0.2500006001    0.4730196444
C12        C    0.0534914638    0.2500202282    0.5240052184
C13        C    0.0592146156    0.2503571909    0.4804795894
C14        C   -0.0236084858    0.2492999786    0.5845528942
C15        C    0.0033654874    0.2493851592    0.5863348888
C16        C   -0.0038103730    0.2506219643    0.4124615512
C17        C    0.0243293904    0.2507108264    0.4143205620
C18        C   -0.0862369479    0.2496296338    0.5078007282
C19        C   -0.0822627849    0.2498387087    0.4810063312
C20        C    0.0830639287    0.2501642661    0.5189853341
C21        C    0.0854502051    0.2503683267    0.4920860359
C22        C   -0.0548872468    0.2494612102    0.5466896628
C23        C    0.0430592297    0.2497705137    0.5531603484
C24        C    0.0559525378    0.2505421539    0.4533807140
C25        C   -0.0441245208    0.2502261223    0.4467692747
H26        H   -0.0378873314    0.2491227339    0.6018041024
H27        H    0.0133672376    0.2492845898    0.6051901579
H28        H   -0.0141256215    0.2507208022    0.3936876731
H29        H    0.0388977327    0.2508882437    0.3971905806
H30        H   -0.1051172572    0.2494758283    0.5195203419
H31        H   -0.0985501332    0.2498787891    0.4673309855
H32        H    0.0988960275    0.2501200784    0.5329981705
H33        H    0.1046993580    0.2505206272    0.4807583553
H37        H   -0.0025717777    0.2498329529    0.5217104884
H38        H    0.0027673912    0.2501797529    0.4766381772
Zr35      Zr    0.3277118787    0.2095893536    0.2791317371
O36        O    0.3624712395    0.2240956860    0.2964383410
O37        O    0.3379296143    0.1678205745    0.2628102460
O38        O    0.3336208354    0.1852795693    0.3167570089
O39        O    0.3423961611    0.2417214919    0.2156799002
O40        O    0.2941744970    0.1859422398    0.3396958714
O41        O    0.3605800501    0.2164566503    0.2474293735
O42        O    0.3018864014    0.1547167531    0.2431918375
O43        O    0.2899292638    0.1919607327    0.2844458975
O44        O    0.3057998995    0.2103149309    0.2436308411
O45        O    0.3007242470    0.2308643037    0.3071487222
O46        O    0.3165936816    0.2492214642    0.2663363031
Zr47      Zr    0.2358043465    0.2509411881    0.2650745016
Zr48      Zr    0.2648013991    0.2106528553    0.3157113369
Zr49      Zr    0.2987131278    0.2498798056    0.2284919189
Zr50      Zr    0.2702213454    0.1886917729    0.2478417555
O51        O    0.3158717507    0.2879110144    0.2233302436
O52        O    0.2523190370    0.1543629358    0.2656601408
O53        O    0.2627914810    0.2296653948    0.2370518962
O54        O    0.2469208453    0.2113111967    0.2778669526
O55        O    0.2577146274    0.2502177300    0.3005724146
O56        O    0.2735852631    0.2685719282    0.2597573582
C57        C    0.3248131611    0.1523996824    0.2505435401
C58        C    0.3604497016    0.2289384604    0.2263417832
C59        C    0.3180286165    0.1798689673    0.3354432762
O60        O    0.2462579143    0.1732941732    0.3217263323
O61        O    0.2211183658    0.2188111690    0.3285233555
O62        O    0.2029344768    0.2440760105    0.2967738823
C63        C    0.2030631270    0.2315963196    0.3178584896
O64        O    0.3323089559    0.2753960933    0.3114945647
Zr65      Zr    0.2932931815    0.2718408880    0.2963615002
O66        O    0.2255849126    0.2927120863    0.2813930097
O67        O    0.2617044873    0.2288008240    0.3547991406
O68        O    0.2851034512    0.2776580797    0.3385755854
O69        O    0.3119989051    0.3068600736    0.2808556535
O70        O    0.2616281255    0.3058159078    0.3010114182
C71        C    0.2387013658    0.3081329784    0.2936597156
O72        O    0.2017649552    0.2382260944    0.2449812902
O73        O    0.2980614055    0.2336994362    0.1887099904
O74        O    0.2298936915    0.2752530916    0.2274462468
O75        O    0.2693400299    0.2745904210    0.2045073843
O76        O    0.2771865017    0.1816410151    0.2056842097
O77        O    0.2341299183    0.1845396114    0.2272406846
C78        C    0.2454859104    0.2806636935    0.2087599795
H79        H    0.3169890676    0.2006794997    0.2291449914
H80        H    0.2300691011    0.2015019983    0.2801839210
H81        H    0.2703904705    0.2874591916    0.2536827847
H82        H    0.3101168204    0.2317563456    0.3242699693
H83        H    0.2512682014    0.1411646852    0.2506511872
H84        H    0.2540828591    0.2148876524    0.3670476057
H85        H    0.2871156544    0.2971775251    0.3422274301
H86        H    0.2748474599    0.1620442719    0.2026758976
H87        H    0.3068142505    0.2471304679    0.1766859117
H88        H    0.3197061724    0.2897434040    0.2035148289
H89        H    0.3101385558    0.3205246584    0.2956715769
H90        H    0.2194193288    0.1810188462    0.2409631662
H91        H    0.2088278246    0.2314346318    0.2269361355
H92        H    0.3756432105    0.2082497223    0.2968804593
H93        H    0.3311855109    0.2900654641    0.3252849193
H94        H    0.3108611266    0.2175712252    0.1876060289
H95        H    0.1955916218    0.2217859471    0.2544067608
H96        H    0.2609157516    0.1588353679    0.3217111401
H97        H    0.2659516332    0.1457417646    0.2773398143
H98        H    0.3005215136    0.3148273102    0.2667885055
H99        H    0.2803555510    0.2303901714    0.3606872594
H100       H    0.3574031975    0.2281544212    0.3157484498
Zr101     Zr    0.7796274080    0.2156325401    0.7071943203
O102       O    0.8155692735    0.1961006085    0.7208844191
O103       O    0.7882687902    0.2315032016    0.6653897184
O104       O    0.7868303102    0.1776721247    0.6825596732
O105       O    0.7920097298    0.2781614519    0.7394021750
O106       O    0.7483821762    0.1571278584    0.6838488494
O107       O    0.8112212275    0.2453324244    0.7136104190
O108       O    0.7509596124    0.2534246718    0.6531403303
O109       O    0.7416544821    0.2127056535    0.6902995552
O110       O    0.7560130774    0.2525391670    0.7085793966
O111       O    0.7543168174    0.1891576722    0.7287885065
O112       O    0.7686743918    0.2289886075    0.7470713125
Zr113     Zr    0.6876727521    0.2352302795    0.7503856420
Zr114     Zr    0.7183088398    0.1828719131    0.7092570136
Zr115     Zr    0.7489895204    0.2679939912    0.7483251175
Zr116     Zr    0.7201177818    0.2505959909    0.6876595793
O117       O    0.7667051983    0.2719655226    0.7859979981
O118       O    0.7023245897    0.2339798529    0.6536165638
O119       O    0.7129825637    0.2617108104    0.7287906600
O120       O    0.6986239684    0.2218772968    0.7105108186
O121       O    0.7112852829    0.1983267373    0.7490027345
O122       O    0.7256438781    0.2381602509    0.7672825759
C123       C    0.7742382957    0.2446553380    0.6503281160
C124       C    0.8103502265    0.2664157793    0.7262133638
C125       C    0.7719707874    0.1599379084    0.6773425984
O126       O    0.6992585625    0.1781286668    0.6722774184
O127       O    0.6752886305    0.1727044524    0.7181799561
O128       O    0.6560771327    0.2055334799    0.7439717122
C129       C    0.6569463339    0.1844532097    0.7313709362
O130       O    0.7870680393    0.1826926449    0.7726074890
Zr131     Zr    0.7471805784    0.2002699134    0.7699225518
O132       O    0.6790295700    0.2193627027    0.7921924127
O133       O    0.7174014880    0.1438461760    0.7271872198
O134       O    0.7410690611    0.1584724318    0.7756195130
O135       O    0.7659013599    0.2145177248    0.8046241749
O136       O    0.7163387478    0.1974412325    0.8044418008
C137       C    0.6930600646    0.2062105663    0.8072540152
O138       O    0.6523575259    0.2575022574    0.7384880883
O139       O    0.7461462595    0.3079389933    0.7324379182
O140       O    0.6804680500    0.2731937796    0.7750224579
O141       O    0.7189161840    0.2937380459    0.7737332818
O142       O    0.7249799034    0.2924169256    0.6807545299
O143       O    0.6828929261    0.2734717599    0.6843563858
C144       C    0.6953275728    0.2909279959    0.7802395328
H145       H    0.7663559871    0.2663932174    0.6988313312
H146       H    0.6816459719    0.2206323364    0.7010320544
H147       H    0.7225337781    0.2443721777    0.7862450160
H148       H    0.7645524707    0.1714264025    0.7293838260
H149       H    0.7003034012    0.2491260660    0.6405548702
H150       H    0.7100591364    0.1320995395    0.7133645780
H151       H    0.7436471081    0.1546188797    0.7950479248
H152       H    0.7221029158    0.2956463676    0.6612511968
H153       H    0.7546233542    0.3193928693    0.7457554089
H154       H    0.7696552001    0.2915692184    0.7878805095
H155       H    0.7650048634    0.1997427366    0.8182100407
H156       H    0.6687218746    0.2606479017    0.6810412141
H157       H    0.6584543242    0.2751653969    0.7316841057
H158       H    0.8284761106    0.1949034056    0.7047991433
H159       H    0.7868820938    0.1688957041    0.7871888472
H160       H    0.7586017914    0.3083143367    0.7160881174
H161       H    0.6462838868    0.2485030519    0.7221318479
H162       H    0.7136609535    0.1772927358    0.6575510571
H163       H    0.7163647603    0.2214722138    0.6446640417
H164       H    0.7538962944    0.2292860842    0.8128967484
H165       H    0.7364038823    0.1367921821    0.7283694073
H166       H    0.8114767208    0.1770574761    0.7249121590
N168       N    0.5110178503    0.9990729998    0.2040406763
N169       N    0.4679747448    0.9612497477    0.2042988519
N170       N    0.5049948350    0.9133224862    0.2048168667
N171       N    0.5480492646    0.9513069614    0.2045572318
C172       C    0.4889276533    1.0170928982    0.2038288770
C173       C    0.5352355660    1.0113428833    0.2039783007
C174       C    0.4808973024    0.9001533836    0.2048877640
C175       C    0.5268416990    0.8944485062    0.2050360148
C176       C    0.4533180708    0.9841707886    0.2040574672
C177       C    0.4497092446    0.9409123059    0.2044478422
C178       C    0.5656445473    0.9702233038    0.2044199158
C179       C    0.5631666600    0.9268243933    0.2048139401
C180       C    0.5004804087    1.0436611113    0.2036085816
C181       C    0.5275825539    1.0402958605    0.2036960332
C182       C    0.4878749002    0.8726056340    0.2051556980
C183       C    0.5161483750    0.8690949402    0.2052469292
C184       C    0.4239452398    0.9808757561    0.2040265443
C185       C    0.4228673987    0.9540741356    0.2042708228
C186       C    0.5940505817    0.9597539178    0.2045754304
C187       C    0.5913773087    0.9331504006    0.2048145609
C188       C    0.4623441400    1.0127603445    0.2038133120
C189       C    0.5607560278    1.0005406225    0.2041308618
C190       C    0.5548507239    0.9010943144    0.2050332737
C191       C    0.4542981302    0.9135798461    0.2047088164
H192       H    0.4895436475    1.0631319429    0.2034066870
H193       H    0.5410417624    1.0567374649    0.2035728582
H194       H    0.4741198391    0.8563024085    0.2052769835
H195       H    0.5273951439    0.8496872584    0.2054488892
H196       H    0.4074054163    0.9958381821    0.2038544385
H197       H    0.4041413462    0.9438565596    0.2043257690
H198       H    0.6123881089    0.9703856522    0.2045158648
H199       H    0.6083566159    0.9184993200    0.2049847190
H203       H    0.5095789796    0.9785875951    0.2042261046
H204       H    0.5064301670    0.9337575087    0.2046318944
Zr201     Zr    0.7757245424    0.6912278916    0.2961646828
O202       O    0.8118334514    0.7076661499    0.2799909636
O203       O    0.7829829875    0.6750897525    0.3376063722
O204       O    0.7808541447    0.7289062781    0.3200535100
O205       O    0.7912165897    0.6272570628    0.2636444691
O206       O    0.7418174870    0.7526274614    0.3210517748
O207       O    0.8084712771    0.6588214842    0.2879662161
O208       O    0.7456301789    0.6563562642    0.3524449889
O209       O    0.7368394884    0.6974748124    0.3154891146
O210       O    0.7530974180    0.6562140220    0.2965990944
O211       O    0.7505880002    0.7195786737    0.2759393183
O212       O    0.7668449672    0.6783205157    0.2570463732
Zr213     Zr    0.6859523087    0.6787133815    0.2589657299
Zr214     Zr    0.7134677768    0.7290551106    0.2977501143
Zr215     Zr    0.7482074472    0.6408831990    0.2573782677
Zr216     Zr    0.7161454196    0.6613493623    0.3198293238
O217       O    0.7677212536    0.6350311199    0.2185529527
O218       O    0.6963749508    0.6798256171    0.3549187132
O219       O    0.7110881865    0.6503570035    0.2791919888
O220       O    0.6948302568    0.6916177939    0.2980820089
O221       O    0.7085778060    0.7137242876    0.2585292877
O222       O    0.7248357357    0.6724634973    0.2396392675
C223       C    0.7686098966    0.6632467733    0.3536971566
C224       C    0.8087124224    0.6376486910    0.2755786220
C225       C    0.7652556054    0.7479416829    0.3260803135
O226       O    0.6926257431    0.7357820821    0.3359601660
O227       O    0.6704586344    0.7426812468    0.2914839130
O228       O    0.6532039469    0.7111168254    0.2671621660
C229       C    0.6529611746    0.7322866551    0.2795477294
O230       O    0.7851650465    0.7228667260    0.2299093518
Zr231     Zr    0.7455298045    0.7085889473    0.2352990583
O232       O    0.6786922365    0.6948485571    0.2175220099
O233       O    0.7123000688    0.7679985981    0.2795261353
O234       O    0.7385358257    0.7508711703    0.2296349978
O235       O    0.7661957357    0.6923997610    0.1994709098
O236       O    0.7160450451    0.7135820454    0.2026833932
C237       C    0.6930653275    0.7066915363    0.2014312255
O238       O    0.6506231910    0.6594607548    0.2733273143
O239       O    0.7457290662    0.6013061229    0.2738042752
O240       O    0.6808210794    0.6410320315    0.2350748720
O241       O    0.7198577371    0.6173108482    0.2340766073
O242       O    0.7218346636    0.6191599981    0.3267833110
O243       O    0.6792939182    0.6415548532    0.3257121086
C244       C    0.6964196186    0.6219966267    0.2290480686
H245       H    0.7634098684    0.6416004165    0.3058145284
H246       H    0.6773619468    0.6943683539    0.3086502649
H247       H    0.7227131380    0.6662920971    0.2209020933
H248       H    0.7604017307    0.7364781427    0.2745391594
H249       H    0.6941819460    0.6649743591    0.3682547198
H250       H    0.7040210407    0.7805154503    0.2937392401
H251       H    0.7418671566    0.7543017318    0.2099826254
H252       H    0.7181836984    0.6163796724    0.3465246113
H253       H    0.7551157635    0.5889943684    0.2600219091
H254       H    0.7712845558    0.6151428969    0.2166434251
H255       H    0.7654965956    0.7071141481    0.1857999228
H256       H    0.6645999054    0.6555969983    0.3298315143
H257       H    0.6569094072    0.6413516074    0.2798984285
H258       H    0.8240370755    0.7079781737    0.2952618920
H259       H    0.7852478980    0.7365324728    0.2152042226
H260       H    0.7575106862    0.6000840776    0.2893821736
H261       H    0.6435786154    0.6691506773    0.2900193036
H262       H    0.7063977480    0.7355941606    0.3497776024
H263       H    0.7097246318    0.6912877533    0.3628797032
H264       H    0.7549168927    0.6785142703    0.1920794696
H265       H    0.7312133173    0.7734804009    0.2770665977
H266       H    0.8073982121    0.7270221604    0.2760600014
N268       N    0.0111103061    0.6577249984    0.5443322327
N269       N    0.0481428388    0.6582685650    0.4965950249
N270       N    0.0050927881    0.6585301061    0.4585906069
N271       N   -0.0319284309    0.6579850258    0.5064890211
C272       C    0.0353261111    0.6576647905    0.5566146544
C273       C   -0.0109799221    0.6575008169    0.5623364534
C274       C    0.0269397469    0.6587618749    0.4397322847
C275       C   -0.0190027849    0.6585991885    0.4454091678
C276       C    0.0657361259    0.6581292614    0.5155190248
C277       C    0.0632609934    0.6585380749    0.4721249497
C278       C   -0.0465857914    0.6577315200    0.5293980682
C279       C   -0.0501918170    0.6581363289    0.4861437318
C280       C    0.0276717090    0.6573701442    0.5855589032
C281       C    0.0005706639    0.6572741771    0.5889076404
C282       C    0.0162484772    0.6589789331    0.4143760767
C283       C   -0.0120238501    0.6588788184    0.4178695432
C284       C    0.0941414289    0.6582961740    0.5050679547
C285       C    0.0914699002    0.6585440585    0.4784667192
C286       C   -0.0759570086    0.6576938410    0.5260861464
C287       C   -0.0770331703    0.6579473749    0.4992877796
C288       C    0.0608460006    0.6578280891    0.5458290516
C289       C   -0.0375618928    0.6574796184    0.5579888104
C290       C   -0.0456014923    0.6584082775    0.4588179534
C291       C    0.0549470201    0.6587643282    0.4463936893
H292       H    0.0411292713    0.6572447464    0.6020060788
H293       H   -0.0103667534    0.6570623947    0.6083691785
H294       H    0.0274958833    0.6591908421    0.3949778625
H295       H   -0.0257772590    0.6590021974    0.4015605515
H296       H    0.1124774279    0.6582377721    0.5157089882
H297       H    0.1084492799    0.6587240192    0.4638278051
H298       H   -0.0924969447    0.6575119405    0.5410366205
H299       H   -0.0957577010    0.6580009050    0.4890606146
H303       H    0.0096727486    0.6579173349    0.5238489512
H304       H    0.0065268100    0.6583382426    0.4790235114
Zr301     Zr    0.3272156030    0.7008813635    0.7223844573
O302       O    0.3643412717    0.6853970039    0.7034805058
O303       O    0.3330284325    0.7424197575    0.7383772040
O304       O    0.3335565629    0.7250457197    0.6845033924
O305       O    0.3405134316    0.6683255649    0.7851982291
O306       O    0.2955228278    0.7254626107    0.6632763036
O307       O    0.3587091651    0.6931095456    0.7526603224
O308       O    0.2945826410    0.7565360017    0.7596496425
O309       O    0.2882434585    0.7195688178    0.7187771941
O310       O    0.3030504417    0.7007677488    0.7589030694
O311       O    0.3036692648    0.6803184803    0.6954712068
O312       O    0.3184754523    0.6615144781    0.7355944871
Zr313     Zr    0.2375418322    0.6620180576    0.7404289742
Zr314     Zr    0.2665582721    0.7015395802    0.6885348473
Zr315     Zr    0.2981974431    0.6613577670    0.7742816414
Zr316     Zr    0.2658932853    0.7233937991    0.7563126787
O317       O    0.3181606766    0.6228128390    0.7785997581
O318       O    0.2462898633    0.7582493687    0.7393440900
O319       O    0.2610872461    0.6825818000    0.7673478769
O320       O    0.2462802628    0.7013828691    0.7272220016
O321       O    0.2617052734    0.6621295984    0.7039134194
O322       O    0.2765122567    0.6433285293    0.7440392947
C323       C    0.3178463616    0.7582223411    0.7512786529
C324       C    0.3582518724    0.6806229068    0.7737532433
C325       C    0.3186734056    0.7308868637    0.6664938984
O326       O    0.2453155637    0.7394491433    0.6834218769
O327       O    0.2242422835    0.6945717822    0.6776182596
O328       O    0.2060465501    0.6697878015    0.7101561664
C329       C    0.2065021227    0.6822723664    0.6890663027
O330       O    0.3392274562    0.6348659157    0.6896144450
Zr331     Zr    0.2988624299    0.6395035481    0.7065038101
O332       O    0.2317272826    0.6204775896    0.7244392848
O333       O    0.2674126839    0.6834463286    0.6494855637
O334       O    0.2938082294    0.6338942968    0.6645788917
O335       O    0.3194743864    0.6039341243    0.7211194013
O336       O    0.2701730742    0.6063613454    0.7031668463
C337       C    0.2469093535    0.6046750060    0.7115378358
O338       O    0.2011063108    0.6756900799    0.7620872744
O339       O    0.2937006534    0.6775846363    0.8141871725
O340       O    0.2311991523    0.6378516275    0.7783130963
O341       O    0.2692328873    0.6374347365    0.7995401851
O342       O    0.2696232086    0.7302717053    0.7982381357
O343       O    0.2280638773    0.7285499573    0.7785497536
C344       C    0.2460823096    0.6320104834    0.7963225903
H345       H    0.3125642048    0.7101096199    0.7729372949
H346       H    0.2287364568    0.7116665178    0.7256710992
H347       H    0.2744575431    0.6245097206    0.7502183233
H348       H    0.3142464228    0.6791622747    0.6779081490
H349       H    0.2432100695    0.7714952650    0.7544523651
H350       H    0.2594202513    0.6975817381    0.6375906541
H351       H    0.2976433263    0.6142966450    0.6607859130
H352       H    0.2654950799    0.7499555732    0.8014013278
H353       H    0.3028022540    0.6639006938    0.8258084828
H354       H    0.3208939220    0.6208780096    0.7982688945
H355       H    0.3196612639    0.5903015956    0.7063321296
H356       H    0.2139025372    0.7324761758    0.7654674510
H357       H    0.2064881260    0.6822993731    0.7798615524
H358       H    0.3762873237    0.7008978253    0.7024930141
H359       H    0.3401695234    0.6202074527    0.6758191547
H360       H    0.3051523011    0.6933786786    0.8147650821
H361       H    0.1941810838    0.6923161481    0.7529613121
H362       H    0.2588348435    0.7535204550    0.6828232479
H363       H    0.2599990008    0.7665016784    0.7270655049
H364       H    0.3077209909    0.5962777549    0.7356950138
H365       H    0.2866142198    0.6813400158    0.6427600189
H366       H    0.3608177373    0.6814682256    0.6843577995
N368       N    0.4943699599    0.9967284922    0.7964537266
N369       N    0.5393164792    0.9563053637    0.7968870017
N370       N    0.5045833220    0.9104964704    0.7970789749
N371       N    0.4596176001    0.9510817273    0.7966445243
C372       C    0.5156114572    1.0134688662    0.7964134115
C373       C    0.4695207814    1.0104479839    0.7962731843
C374       C    0.5293560090    0.8958835489    0.7972653589
C375       C    0.4836271439    0.8928863804    0.7971262325
C376       C    0.5528752760    0.9783934917    0.7967833052
C377       C    0.5585987811    0.9348583830    0.7971009480
C378       C    0.4410757387    0.9710659089    0.7964431642
C379       C    0.4456736102    0.9274570237    0.7967573823
C380       C    0.5027471810    1.0407589021    0.7961819167
C381       C    0.4757721757    1.0389909021    0.7960998474
C382       C    0.5237124166    0.8687079862    0.7974314683
C383       C    0.4955715766    0.8668635748    0.7973458521
C384       C    0.5824488937    0.9733572305    0.7969209681
C385       C    0.5848353441    0.9464526820    0.7971132538
C386       C    0.4131415397    0.9622604613    0.7964058643
C387       C    0.4171159376    0.9354599903    0.7966029812
C388       C    0.5424425515    1.0075584596    0.7965474783
C389       C    0.4444923276    1.0011385907    0.7962494727
C390       C    0.4552557733    0.9011976964    0.7969703734
C391       C    0.5553366608    0.9077572137    0.7972748614
H392       H    0.5127492582    1.0596116801    0.7960879265
H393       H    0.4614927281    1.0562522165    0.7959319827
H394       H    0.5382813717    0.8515677635    0.7975995156
H395       H    0.4852559888    0.8480923656    0.7974381902
H396       H    0.5982815585    0.9873637757    0.7968804653
H397       H    0.6040852720    0.9351131462    0.7972579791
H398       H    0.3942604683    0.9739917933    0.7962597478
H399       H    0.4008280047    0.9217912265    0.7966395854
H403       H    0.4968098853    0.9761280574    0.7966030956
H404       H    0.5021493974    0.9310462401    0.7969299733
N402       N    0.1912120649    0.4920277813    0.0103795335
N403       N    0.1912118159    0.4527301562    0.0542585179
N404       N    0.1913962867    0.4060729307    0.0180648962
N405       N    0.1913961893    0.4455321631   -0.0258285378
C406       C    0.1911262159    0.5092900979    0.0321797586
C407       C    0.1912328409    0.5051274249   -0.0141354038
C408       C    0.1913778125    0.3920782093    0.0424766164
C409       C    0.1914836005    0.3879482132   -0.0034749729
C410       C    0.1911297449    0.4751482787    0.0685121897
C411       C    0.1912215279    0.4317671638    0.0729610684
C412       C    0.1913883791    0.4650511192   -0.0438318718
C413       C    0.1914827662    0.4215683428   -0.0405141091
C414       C    0.1910886874    0.5362536299    0.0200873369
C415       C    0.1911510907    0.5338173861   -0.0070190512
C416       C    0.1914549815    0.3647702915    0.0360104041
C417       C    0.1915200818    0.3622287555    0.0077325030
C418       C    0.1910780117    0.4708465749    0.0980229609
C419       C    0.1911372148    0.4440086682    0.0996183294
C420       C    0.1914696830    0.4555556050   -0.0721090114
C421       C    0.1915252126    0.4288611135   -0.0689179614
C422       C    0.1910824881    0.5040465020    0.0589140511
C423       C    0.1913090836    0.4952001412   -0.0395132433
C424       C    0.1915249077    0.3955538663   -0.0316828315
C425       C    0.1912933831    0.4045926576    0.0688855040
H426       H    0.1910220251    0.5553491275    0.0306779110
H427       H    0.1911406007    0.5507199012   -0.0208282660
H428       H    0.1914645576    0.3479960117    0.0501135655
H429       H    0.1915872251    0.3432070317   -0.0031700796
H430       H    0.1910103662    0.4852417327    0.1143174321
H431       H    0.1911228219    0.4331495083    0.1185882269
H432       H    0.1914823434    0.4668155965   -0.0906973511
H433       H    0.1915930321    0.4147923567   -0.0856590133
H437       H    0.1912560746    0.4714935614    0.0122155314
H438       H    0.1913523852    0.4265566483    0.0162334137
N436       N    0.6914099077    0.4636952081    1.0377169653
N437       N    0.6915959037    0.4274632011    0.9912424908
N438       N    0.6915613385    0.4713490985    0.9517733088
N439       N    0.6913750578    0.5075667151    0.9984093694
C440       C    0.6914470213    0.4391810703    1.0508236288
C441       C    0.6913193039    0.4855057507    1.0549683078
C442       C    0.6916529892    0.4497986275    0.9336596091
C443       C    0.6915262743    0.4957596602    0.9377717525
C444       C    0.6916034380    0.4094642302    1.0107649822
C445       C    0.6916815137    0.4127659741    0.9672880818
C446       C    0.6912936410    0.5218313790    1.0208184951
C447       C    0.6913685976    0.5262644714    0.9774428167
C448       C    0.6913715128    0.4463095854    1.0795062346
C449       C    0.6912967650    0.4734215440    1.0819319473
C450       C    0.6916753314    0.4609982116    0.9079401711
C451       C    0.6915973530    0.4892819239    0.9104707209
C452       C    0.6916952688    0.3811786268    1.0012815920
C453       C    0.6917402240    0.3843600405    0.9745902764
C454       C    0.6912261174    0.5513455622    1.0165064641
C455       C    0.6912754728    0.5529309663    0.9896723532
C456       C    0.6915322365    0.4137950987    1.0409074559
C457       C    0.6912608160    0.5122426205    1.0497155768
C458       C    0.6914332461    0.5221778433    0.9502742811
C459       C    0.6917105707    0.4215888405    0.9412745615
H460       H    0.6913734452    0.4325044537    1.0964111453
H461       H    0.6912314131    0.4840212155    1.1010203611
H462       H    0.6917413407    0.4500865062    0.8889256357
H463       H    0.6915944072    0.5033811014    0.8936939145
H464       H    0.6917207658    0.3625913996    1.0125466891
H465       H    0.6918114201    0.3676107554    0.9605300798
H466       H    0.6911554224    0.5676483144    1.0308931752
H467       H    0.6912481934    0.5718999695    0.9788078795
H471       H    0.6914460838    0.4655236874    1.0171854196
H472       H    0.6915252514    0.4695251162    0.9722543587
Zr469     Zr    0.7353600515    0.7184318333    0.7969909454
O470       O    0.7005735350    0.7012235015    0.7824328236
O471       O    0.7251746006    0.7346615967    0.8387919380
O472       O    0.7294175538    0.6807492928    0.8211980027
O473       O    0.7207335665    0.7820000302    0.7650237345
O474       O    0.7688412883    0.6577409753    0.8204872216
O475       O    0.7025220368    0.7502128087    0.7901974398
O476       O    0.7612471352    0.7541833907    0.8519541001
O477       O    0.7731460574    0.7130039548    0.8146133503
O478       O    0.7573129226    0.7538990044    0.7963630733
O479       O    0.7623110735    0.6904216727    0.7756548185
O480       O    0.7464791358    0.7313140905    0.7574015732
Zr481     Zr    0.8272756218    0.7324385123    0.7557077441
Zr482     Zr    0.7982344836    0.6817414821    0.7958507269
Zr483     Zr    0.7644028906    0.7691318494    0.7568458518
Zr484     Zr    0.7928973503    0.7495677198    0.8179815768
O485       O    0.7472350228    0.7744251941    0.7188296087
O486       O    0.8107935798    0.7316251729    0.8522636488
O487       O    0.8003251036    0.7604542906    0.7770447285
O488       O    0.8161582384    0.7195592410    0.7952950055
O489       O    0.8053244516    0.6969743272    0.7563335055
O490       O    0.7894913168    0.7378693767    0.7380832284
C491       C    0.7383112347    0.7468652466    0.8542454847
C492       C    0.7026713426    0.7713350522    0.7777721316
C493       C    0.7449921878    0.6620197159    0.8265638344
O494       O    0.8167861338    0.6755941006    0.8331927399
O495       O    0.8419038077    0.6688733014    0.7876728443
O496       O    0.8601153374    0.7006605228    0.7624991390
C497       C    0.8599677326    0.6795412652    0.7749223365
O498       O    0.7307030957    0.6862493729    0.7311105882
Zr499     Zr    0.7697400239    0.7013056118    0.7347150020
O500       O    0.8374627736    0.7162117348    0.7139046408
O501       O    0.8012817291    0.6426933027    0.7776059045
O502       O    0.7778814348    0.6590891695    0.7287922290
O503       O    0.7510375003    0.7169386804    0.6997365137
O504       O    0.8013902391    0.6966899409    0.7007424787
C505       C    0.8243261395    0.7040080849    0.6984510940
O506       O    0.8613445649    0.7524397041    0.7684819135
O507       O    0.7651046406    0.8088728482    0.7731262329
O508       O    0.8332198204    0.7701240387    0.7314985760
O509       O    0.7937960859    0.7931323562    0.7322093572
O510       O    0.7859809890    0.7917221862    0.8251379011
O511       O    0.8290159872    0.7700959631    0.8221961335
C512       C    0.8176451864    0.7888536156    0.7261327444
H513       H    0.7461424120    0.7683800915    0.8060311298
H514       H    0.8330122515    0.7171863831    0.8051012408
H515       H    0.7926863406    0.7439890243    0.7192156906
H516       H    0.7528984265    0.6733179252    0.7747161901
H517       H    0.8118658948    0.7465984151    0.8654986597
H518       H    0.8088953399    0.6303934654    0.7914872648
H519       H    0.7758580245    0.6554924470    0.7092661005
H520       H    0.7883305767    0.7946745439    0.8447397457
H521       H    0.7563596474    0.8209489884    0.7597260398
H522       H    0.7434216484    0.7942538257    0.7170475506
H523       H    0.7528766470    0.7021546046    0.6860365503
H524       H    0.8437137577    0.7563371469    0.8256849993
H525       H    0.8543036121    0.7704806880    0.7753167980
H526       H    0.6874057121    0.7007623916    0.7982713339
H527       H    0.7318060589    0.6724949153    0.7164084480
H528       H    0.7523109150    0.8099565385    0.7892510317
H529       H    0.8675138072    0.7429589202    0.7848967008
H530       H    0.8021323385    0.6755966376    0.8476450933
H531       H    0.7971500273    0.7199456101    0.8608494861
H532       H    0.7625285640    0.7310079623    0.6918100595
H533       H    0.7826220873    0.6368417257    0.7759964852
H534       H    0.7056190775    0.6819137054    0.7783263932
N536       N    0.8227334044    0.9459500133    0.5498638947
N537       N    0.8228521311    0.9821578789    0.5034018500
N538       N    0.8225766788    0.9382831718    0.4639349112
N539       N    0.8224582467    0.9020897209    0.5105585146
C540       C    0.8228749783    0.9704562151    0.5629709201
C541       C    0.8226471909    0.9241519815    0.5671096924
C542       C    0.8226603959    0.9598210799    0.4458268833
C543       C    0.8224343967    0.9138803335    0.4499331663
C544       C    0.8229696873    1.0001528890    0.5229228189
C545       C    0.8228932773    0.9968443513    0.4794534046
C546       C    0.8224171564    0.8878353367    0.5329620040
C547       C    0.8223351834    0.8833959499    0.4895936675
C548       C    0.8228784798    0.9633361329    0.5916475509
C549       C    0.8227451651    0.9362361409    0.5940698066
C550       C    0.8225685909    0.9486214021    0.4201108443
C551       C    0.8224295144    0.9203501736    0.4226377877
C552       C    0.8230992150    1.0284246971    0.5134442912
C553       C    0.8230464870    1.0252396027    0.4867574430
C554       C    0.8222624716    0.8583328699    0.5286474656
C555       C    0.8222175914    0.8567430806    0.5018180256
C556       C    0.8229892964    0.9958295408    0.5530593652
C557       C    0.8225052110    0.8974254717    0.5618549332
C558       C    0.8223184316    0.8874757219    0.4624304948
C559       C    0.8228130470    0.9880203269    0.4534436011
H560       H    0.8229712998    0.9771385906    0.6085509450
H561       H    0.8227179820    0.9256445672    0.6131535919
H562       H    0.8225974482    0.9595248911    0.4011009587
H563       H    0.8223353885    0.9062538190    0.4058624421
H564       H    0.8232083845    1.0470061573    0.5247094230
H565       H    0.8231115777    1.0419791271    0.4727016513
H566       H    0.8222000803    0.8420397503    0.5430297626
H567       H    0.8221070484    0.8377800821    0.4909534024
H571       H    0.8226959634    0.9441184400    0.5293358544
H572       H    0.8226140277    0.9401102405    0.4844124645
Zr569     Zr    0.7375162351    0.1939532817    0.2081600917
O570       O    0.7004338125    0.2129844152    0.2236042191
O571       O    0.7316505680    0.1778995095    0.1666602166
O572       O    0.7312499947    0.2318075505    0.1839248649
O573       O    0.7240882613    0.1312333161    0.2408344864
O574       O    0.7693365097    0.2529334003    0.1834663748
O575       O    0.7059533617    0.1637746311    0.2159902104
O576       O    0.7700485153    0.1564988533    0.1525886665
O577       O    0.7764946563    0.1974230030    0.1894689282
O578       O    0.7616028780    0.1573701322    0.2083460442
O579       O    0.7611342402    0.2208422760    0.2286665169
O580       O    0.7462432647    0.1807920034    0.2475465605
Zr581     Zr    0.8271771490    0.1757418805    0.2470532259
Zr582     Zr    0.7982577347    0.2276414447    0.2074355384
Zr583     Zr    0.7664373636    0.1420506595    0.2477798589
Zr584     Zr    0.7987622455    0.1598205552    0.1857189402
O585       O    0.7464766307    0.1378560663    0.2863267189
O586       O    0.8183929348    0.1766735676    0.1508358156
O587       O    0.8035600553    0.1488472299    0.2265459528
O588       O    0.8184518336    0.1889001008    0.2076688368
O589       O    0.8030922203    0.2123219720    0.2468693531
O590       O    0.7882004420    0.1722691012    0.2657464691
C591       C    0.7467996716    0.1649285956    0.1508858908
C592       C    0.7063682433    0.1427030056    0.2285164506
C593       C    0.7461733703    0.2497671952    0.1780492159
O594       O    0.8195001516    0.2326286777    0.1695223755
O595       O    0.8406068370    0.2384587880    0.2143809108
O596       O    0.8587417366    0.2059174730    0.2392251869
C597       C    0.8583285692    0.2269860405    0.2267010264
O598       O    0.7256018848    0.2268767651    0.2740996306
Zr599     Zr    0.7659328528    0.2098715490    0.2694964571
O600       O    0.8330445303    0.1917925947    0.2885551807
O601       O    0.7974978513    0.2667268724    0.2254485770
O602       O    0.7710840082    0.2517941086    0.2750219462
O603       O    0.7452990451    0.1953755599    0.3050886582
O604       O    0.7946465830    0.2131932509    0.3026267308
C605       C    0.8178954267    0.2047635086    0.3043295065
O606       O    0.8635638521    0.1539615009    0.2334265710
O607       O    0.7708389378    0.1021027312    0.2316346097
O608       O    0.8334451036    0.1378845536    0.2712905324
O609       O    0.7953585886    0.1167587039    0.2717490225
O610       O    0.7949350581    0.1178916193    0.1789250195
O611       O    0.8365450405    0.1374733056    0.1806078780
C612       C    0.8185217280    0.1199249090    0.2771661814
H613       H    0.7520526662    0.1433437551    0.1990334032
H614       H    0.8359975743    0.1903856552    0.1973839758
H615       H    0.7902488914    0.1661190110    0.2845743550
H616       H    0.7505954609    0.2384358214    0.2297877379
H617       H    0.8214341124    0.1615325681    0.1376220202
H618       H    0.8055125967    0.2785748895    0.2112920845
H619       H    0.7672645015    0.2556332536    0.2946087918
H620       H    0.7990490171    0.1146813372    0.1592507297
H621       H    0.7617153079    0.0905304321    0.2453391617
H622       H    0.7436996227    0.1181973681    0.2883000782
H623       H    0.7451506179    0.2101885873    0.3186896775
H624       H    0.8507361867    0.1505110941    0.1766565667
H625       H    0.8581388356    0.1361890556    0.2268534733
H626       H    0.6884822836    0.2139751874    0.2081039517
H627       H    0.7246963354    0.2407016766    0.2887283673
H628       H    0.7593782560    0.1015262250    0.2158442680
H629       H    0.8705040621    0.1630387846    0.2167853014
H630       H    0.8059748581    0.2332373727    0.1554521352
H631       H    0.8047062252    0.1889736019    0.1425605173
H632       H    0.7570243538    0.1807825503    0.3127726413
H633       H    0.7783095417    0.2735073205    0.2275411010
H634       H    0.7040022724    0.2321053272    0.2274945717
N636       N    0.0004098939    0.4974156936    0.2968703999
N637       N   -0.0340917528    0.4515939769    0.2965294294
N638       N    0.0110984976    0.4112076421    0.2960943490
N639       N    0.0455800483    0.4571914421    0.2964367786
C640       C   -0.0245153900    0.5110228573    0.2970342532
C641       C    0.0215596264    0.5142599286    0.2969806723
C642       C   -0.0097611185    0.3934947846    0.2959759325
C643       C    0.0359522100    0.3967064450    0.2959227723
C644       C   -0.0527440955    0.4714970266    0.2967374044
C645       C   -0.0479058990    0.4278976135    0.2963459295
C646       C    0.0590174576    0.4793490068    0.2966074362
C647       C    0.0649809053    0.4358286500    0.2962146528
C648       C   -0.0184210961    0.5396028466    0.2972743783
C649       C    0.0085447443    0.5414973733    0.2972430196
C650       C    0.0023269197    0.3675206214    0.2957263282
C651       C    0.0304581988    0.3694970277    0.2956936142
C652       C   -0.0806303831    0.4625586323    0.2967085464
C653       C   -0.0765082655    0.4357693498    0.2964659624
C654       C    0.0886194482    0.4744495401    0.2965117248
C655       C    0.0911541579    0.4475487318    0.2962709868
C656       C   -0.0494930944    0.5015939554    0.2969959110
C657       C    0.0484238506    0.5084732613    0.2968820428
C658       C    0.0618680070    0.4087047739    0.2959820079
C659       C   -0.0381788777    0.4016758258    0.2960983530
H660       H   -0.0327959348    0.5568021952    0.2974509977
H661       H    0.0184431807    0.5604020782    0.2973914115
H662       H   -0.0078854833    0.3486960427    0.2955791988
H663       H    0.0451218840    0.3524201570    0.2955175563
H664       H   -0.0995764806    0.4742049744    0.2968445388
H665       H   -0.0927212485    0.4220207163    0.2963740870
H666       H    0.1043752928    0.4885339207    0.2966073622
H667       H    0.1104669616    0.4362960172    0.2961377983
H671       H    0.0029633524    0.4768209851    0.2966850049
H672       H    0.0085513192    0.4317516995    0.2962792880
Zr669     Zr    0.1855605515    0.7126224923    0.2248447028
O670       O    0.1494371582    0.7288091400    0.2084135911
O671       O    0.1783293898    0.6711648685    0.2409558778
O672       O    0.1804279106    0.6887506894    0.1871584922
O673       O    0.1700778307    0.7451130751    0.2888211404
O674       O    0.2194553759    0.6877644123    0.1634457885
O675       O    0.1528228316    0.7208052000    0.2572460522
O676       O    0.2156969230    0.6563122402    0.2596827497
O677       O    0.2244525918    0.6932971570    0.2185930102
O678       O    0.2082017587    0.7121678766    0.2598554288
O679       O    0.2106754784    0.7328664578    0.1965133093
O680       O    0.1944256054    0.7517401042    0.2377730977
Zr681     Zr    0.2753186233    0.7498184373    0.2373897479
Zr682     Zr    0.2478026551    0.7110561779    0.1870310104
Zr683     Zr    0.2130781470    0.7513867810    0.2752064046
Zr684     Zr    0.2451631581    0.6889355040    0.2547126811
O685       O    0.1935473042    0.7902160517    0.2810768193
O686       O    0.2649437433    0.6538498313    0.2362223342
O687       O    0.2502043636    0.7295735742    0.2657267359
O688       O    0.2664551967    0.7107028546    0.2244643173
O689       O    0.2526790434    0.7502750823    0.2023819862
O690       O    0.2364282103    0.7691458018    0.2436444048
C691       C    0.1927152075    0.6550643217    0.2527896945
C692       C    0.1525839312    0.7331831339    0.2784222521
C693       C    0.1960217824    0.6827330331    0.1681249034
O694       O    0.2686610596    0.6728427280    0.1802863686
O695       O    0.2908029714    0.7173298838    0.1734162746
O696       O    0.3080579705    0.7416377589    0.2049913628
C697       C    0.3082984981    0.7292618543    0.1838181273
O698       O    0.1760742116    0.7789071242    0.1932472124
Zr699     Zr    0.2157176440    0.7735074548    0.2075247340
O700       O    0.2825514123    0.7912780903    0.2212815373
O701       O    0.2489456521    0.7293049682    0.1481044329
O702       O    0.2226918481    0.7791958658    0.1652536674
O703       O    0.1950403168    0.8093333129    0.2237286933
O704       O    0.2451838791    0.8061307187    0.2025546653
C705       C    0.2681655946    0.8073786372    0.2094477205
O706       O    0.3106624449    0.7354426891    0.2566356766
O707       O    0.2155805698    0.7349358196    0.3147679516
O708       O    0.2804528914    0.7736922694    0.2750789228
O709       O    0.2414254262    0.7746785465    0.2987916265
O710       O    0.2394942916    0.6819569604    0.2968903481
O711       O    0.2820253168    0.6830396724    0.2745053722
C712       C    0.2648590197    0.7797099258    0.2941125116
H713       H    0.1978998284    0.7029429912    0.2744600656
H714       H    0.2839276144    0.7001338367    0.2217105421
H715       H    0.2385438598    0.7878827059    0.2498255973
H716       H    0.2008543473    0.7342765431    0.1796161717
H717       H    0.2671493617    0.6405031911    0.2510638925
H718       H    0.2572267655    0.7150961665    0.1355827480
H719       H    0.2193493035    0.7988536255    0.1618343062
H720       H    0.2431562536    0.6622106112    0.2996595737
H721       H    0.2061919276    0.7487139529    0.3270841864
H722       H    0.1899910097    0.7921149207    0.3009623333
H723       H    0.1957267138    0.8230148362    0.2090245481
H724       H    0.2967157050    0.6789269840    0.2604651654
H725       H    0.3043867962    0.7288605213    0.2747372842
H726       H    0.1372411397    0.7135360871    0.2080914355
H727       H    0.1759785215    0.7936224046    0.1795920127
H728       H    0.2038073201    0.7193548774    0.3159794912
H729       H    0.3177114859    0.7187530340    0.2469388936
H730       H    0.2548961394    0.6590231815    0.1804646888
H731       H    0.2515935511    0.6458942212    0.2247558926
H732       H    0.2063209365    0.8167179808    0.2376174947
H733       H    0.2300290837    0.7317684987    0.1426224674
H734       H    0.1538626668    0.7327514464    0.1890636016
N736       N    0.3229204342    1.0026823932    0.4917779701
N737       N    0.3226460503    0.9633893686    0.4479077652
N738       N    0.3227313857    0.9167459792    0.4840788827
N739       N    0.3230061250    0.9562005764    0.5279635630
C740       C    0.3228497056    1.0199387930    0.4699892073
C741       C    0.3230579405    1.0157814411    0.5162862929
C742       C    0.3225927640    0.9027520628    0.4596735656
C743       C    0.3227993642    0.8986273460    0.5056072201
C744       C    0.3226196540    0.9858011406    0.4336637364
C745       C    0.3225215873    0.9424292765    0.4292081435
C746       C    0.3231247575    0.9757168879    0.5459639502
C747       C    0.3230317764    0.9322434923    0.5426390318
C748       C    0.3229540893    1.0468974599    0.4820823236
C749       C    0.3230759607    1.0444643302    0.5091781321
C750       C    0.3225741808    0.8754508473    0.4661320953
C751       C    0.3227013194    0.8729125600    0.4943989596
C752       C    0.3224745728    0.9814975969    0.4041631410
C753       C    0.3224192906    0.9546655230    0.4025631872
C754       C    0.3232394931    0.9662261729    0.5742287110
C755       C    0.3231770366    0.9395373309    0.5710336984
C756       C    0.3227158732    1.0146938307    0.4432638733
C757       C    0.3231584063    1.0058587779    0.5416527516
C758       C    0.3229442698    0.9062339786    0.5338060265
C759       C    0.3224921105    0.9152612160    0.4332769427
H760       H    0.3229388249    1.0659876952    0.4714993850
H761       H    0.3231703988    1.0613643863    0.5229854593
H762       H    0.3224786027    0.8586789700    0.4520309560
H763       H    0.3227181681    0.8538961116    0.5052938046
H764       H    0.3224243684    0.9958879995    0.3878775254
H765       H    0.3223115985    0.9438069852    0.3835982686
H766       H    0.3233461232    0.9774854168    0.5928122915
H767       H    0.3232299024    0.9254732988    0.5877657913
H771       H    0.3228752714    0.9821525777    0.4899386934
H772       H    0.3227764375    0.9372253032    0.4859136358
Zr769     Zr    0.1872279349    0.2036686230    0.7814921787
O770       O    0.1512720886    0.1899983212    0.8009781418
O771       O    0.1785891987    0.2454642640    0.7655694865
O772       O    0.1799727532    0.2283468281    0.8194145802
O773       O    0.1749305185    0.1713917169    0.7189793080
O774       O    0.2183947077    0.2270765132    0.8400196183
O775       O    0.1556731584    0.1972225885    0.7517505176
O776       O    0.2159155290    0.2576910818    0.7436977301
O777       O    0.2251877889    0.2205671400    0.7844633422
O778       O    0.2108829574    0.2022440308    0.7446276145
O779       O    0.2125145442    0.1820967585    0.8080256102
O780       O    0.1982107317    0.1637706868    0.7681924649
Zr781     Zr    0.2792139890    0.1604449934    0.7620835679
Zr782     Zr    0.2485047583    0.2016360050    0.8143497337
Zr783     Zr    0.2179389698    0.1624754389    0.7292229333
Zr784     Zr    0.2467649188    0.2231673652    0.7466080265
O785       O    0.2002439084    0.1247931964    0.7252591813
O786       O    0.2645244582    0.2572321600    0.7632188806
O787       O    0.2539281648    0.1820176479    0.7355444743
O788       O    0.2682329963    0.2003407572    0.7753802021
O789       O    0.2555607707    0.1618674131    0.7989450526
O790       O    0.2412559392    0.1435443039    0.7591093248
C791       C    0.1926276964    0.2605140533    0.7524265568
C792       C    0.1565730399    0.1845957994    0.7306822654
C793       C    0.1948087618    0.2335822244    0.8371660447
O794       O    0.2675336947    0.2386255700    0.8190879195
O795       O    0.2915132095    0.1927197270    0.8245933590
O796       O    0.3107705697    0.1668888554    0.7918221494
C797       C    0.3098724922    0.1795134721    0.8128873221
O798       O    0.1797756659    0.1382789597    0.8144793929
Zr799     Zr    0.2196788093    0.1409440787    0.7969646405
O800       O    0.2878545293    0.1186471799    0.7780031805
O801       O    0.2493744266    0.1837429738    0.8533906093
O802       O    0.2257443023    0.1352888885    0.8387737352
O803       O    0.2009893095    0.1062230566    0.7827210586
O804       O    0.2505281990    0.1064203621    0.7998749369
C805       C    0.2738160316    0.1035973906    0.7911461102
O806       O    0.3145470714    0.1723196656    0.7398584884
O807       O    0.2208214407    0.1783239755    0.6892707833
O808       O    0.2864709749    0.1357646158    0.7241580868
O809       O    0.2480490203    0.1370349307    0.7035530487
O810       O    0.2419482754    0.2300307516    0.7047763279
O811       O    0.2840114898    0.2264455304    0.7237903908
C812       C    0.2716349663    0.1305292196    0.7064066223
H813       H    0.2005529548    0.2119800016    0.7307490135
H814       H    0.2852044751    0.2098214518    0.7766431412
H815       H    0.2443802177    0.1245721615    0.7529208391
H816       H    0.2022597366    0.1815201552    0.8257396341
H817       H    0.2665577083    0.2702803067    0.7480647948
H818       H    0.2566973959    0.1975796014    0.8651348664
H819       H    0.2231695997    0.1158613712    0.8426412547
H820       H    0.2448211519    0.2495338292    0.7015332713
H821       H    0.2123632935    0.1649929455    0.6778169750
H822       H    0.1973172645    0.1228903448    0.7056542192
H823       H    0.2018741267    0.0926501108    0.7975090978
H824       H    0.2981654278    0.2297736894    0.7366326153
H825       H    0.3084683136    0.1791069139    0.7221806759
H826       H    0.1383587346    0.2060881898    0.8021394363
H827       H    0.1799514940    0.1237093881    0.8282892775
H828       H    0.2083610469    0.1946767689    0.6888601329
H829       H    0.3206035896    0.1886875503    0.7488511242
H830       H    0.2531258512    0.2533560083    0.8198868758
H831       H    0.2504677165    0.2661998043    0.7756946071
H832       H    0.2130134344    0.0979332555    0.7679809147
H833       H    0.2303660304    0.1825688844    0.8604148400
H834       H    0.1553441177    0.1859893047    0.8200300067
N836       N    0.0176558719    0.4953021075    0.7042483879
N837       N    0.0549477429    0.4476944323    0.7038909736
N838       N    0.0121100109    0.4094969454    0.7036309649
N839       N   -0.0251714331    0.4572659463    0.7039895401
C840       C    0.0418022272    0.5076889981    0.7043289335
C841       C   -0.0045315107    0.5132243024    0.7043859356
C842       C    0.0340588372    0.3907192674    0.7034873289
C843       C   -0.0119111818    0.3962111197    0.7035438835
C844       C    0.0724356178    0.4666988756    0.7040217428
C845       C    0.0701991462    0.4232749737    0.7037090704
C846       C   -0.0399535013    0.4801255492    0.7041600094
C847       C   -0.0433215426    0.4368368314    0.7038487291
C848       C    0.0339893872    0.5366151425    0.7045406366
C849       C    0.0068721277    0.5398547319    0.7045739976
C850       C    0.0235077692    0.3653078781    0.7033077541
C851       C   -0.0047814733    0.3686874795    0.7033425569
C852       C    0.1008960590    0.4563590519    0.7039366283
C853       C    0.0983709263    0.4297348186    0.7037453458
C854       C   -0.0693041477    0.4766921824    0.7041460170
C855       C   -0.0702329589    0.4498772430    0.7039527706
C856       C    0.0673793262    0.4970027069    0.7042423782
C857       C   -0.0310874443    0.5087661338    0.7043635169
C858       C   -0.0385814266    0.4095173804    0.7036497555
C859       C    0.0620272436    0.3974980694    0.7035259818
H860       H    0.0473554819    0.5531247474    0.7046549105
H861       H   -0.0041713526    0.5592804499    0.7047183013
H862       H    0.0348608653    0.3459467786    0.7031638030
H863       H   -0.0184441501    0.3523149133    0.7032293815
H864       H    0.1191721028    0.4670797978    0.7040073043
H865       H    0.1154293798    0.4151585891    0.7036338403
H866       H   -0.0859249052    0.4915819080    0.7042596248
H867       H   -0.0888997773    0.4395689673    0.7038852161
H871       H    0.0163309911    0.4748036475    0.7041008884
H872       H    0.0134316333    0.4299449910    0.7037781017
N870       N    0.5176319246    0.1583478314    0.0429007610
N871       N    0.4747862359    0.1580739619    0.0048715936
N872       N    0.5120448868    0.1576921010   -0.0428893840
N873       N    0.5549010800    0.1579672034   -0.0046989191
C874       C    0.4954530671    0.1584945135    0.0608200141
C875       C    0.5417842998    0.1584327740    0.0552852888
C876       C    0.4880172434    0.1576002124   -0.0561726911
C877       C    0.5339847770    0.1575389575   -0.0616639689
C878       C    0.4600150851    0.1582554261    0.0277273315
C879       C    0.4566262682    0.1579248473   -0.0155538055
C880       C    0.5723981275    0.1581056679    0.0143020624
C881       C    0.5701408192    0.1577735813   -0.0291142445
C882       C    0.5068695164    0.1586939947    0.0874457020
C883       C    0.5339853098    0.1586578610    0.0842064516
C884       C    0.4951337725    0.1573861656   -0.0836915887
C885       C    0.5234214854    0.1573484703   -0.0870708366
C886       C    0.4306626967    0.1582413147    0.0242948087
C887       C    0.4297210200    0.1580360577   -0.0025154444
C888       C    0.6008537011    0.1580145234    0.0039638052
C889       C    0.5983157891    0.1578113935   -0.0226557618
C890       C    0.4688949090    0.1584713795    0.0563628450
C891       C    0.5673563556    0.1583401728    0.0446006486
C892       C    0.5619565255    0.1575793005   -0.0548865832
C893       C    0.4613532950    0.1577133612   -0.0428685295
H894       H    0.4958353185    0.1588475679    0.1068681230
H895       H    0.5473593670    0.1587789086    0.1007130643
H896       H    0.4814631979    0.1572662925   -0.1000611842
H897       H    0.5347653313    0.1571952637   -0.1064286527
H898       H    0.4140490277    0.1583624233    0.0391820751
H899       H    0.4110491965    0.1579647749   -0.0128217658
H900       H    0.6191349466    0.1580891322    0.0146825280
H901       H    0.6153673060    0.1576925069   -0.0372295905
H905       H    0.5162972069    0.1581911804    0.0224058885
H906       H    0.5133763219    0.1578483667   -0.0224449170
N904       N    0.4997244588    0.7504194531    0.0444417062
N905       N    0.5448718326    0.7499583671    0.0042195554
N906       N    0.5103620846    0.7496143018   -0.0417520336
N907       N    0.4651947105    0.7500769016   -0.0013678264
C908       C    0.5208847334    0.7505273807    0.0612804978
C909       C    0.4748066398    0.7505959304    0.0580492579
C910       C    0.5352077989    0.7494298623   -0.0562534494
C911       C    0.4894914173    0.7494978739   -0.0594593242
C912       C    0.5583227495    0.7501309111    0.0263715982
C913       C    0.5642604762    0.7497232408   -0.0171415983
C914       C    0.4465537323    0.7502971882    0.0185337627
C915       C    0.4513661327    0.7498911920   -0.0250583477
C916       C    0.5078857165    0.7508022530    0.0885145185
C917       C    0.4809180752    0.7508423723    0.0866234047
C918       C    0.5296974758    0.7491945840   -0.0834573394
C919       C    0.5015643180    0.7492364373   -0.0854301855
C920       C    0.5879225684    0.7500235258    0.0214696422
C921       C    0.5904413506    0.7497739838   -0.0054266090
C922       C    0.4186614336    0.7502753330    0.0096001549
C923       C    0.4227677297    0.7500234294   -0.0171847714
C924       C    0.5477461899    0.7504177620    0.0554918130
C925       C    0.4498227054    0.7505634413    0.0486248996
C926       C    0.4610778102    0.7496325261   -0.0512765198
C927       C    0.5611313766    0.7494836779   -0.0442602338
H928       H    0.5177956383    0.7509527955    0.1074146906
H929       H    0.4665531007    0.7510290283    0.1038212924
H930       H    0.5443513768    0.7490084257   -0.1005328043
H931       H    0.4913404694    0.7490872892   -0.1042502099
H932       H    0.6036871795    0.7501178690    0.0355496910
H933       H    0.6097479485    0.7496308048   -0.0166794964
H934       H    0.3997217850    0.7504213053    0.0212465572
H935       H    0.4065461683    0.7499331051   -0.0309290815
H939       H    0.5022657389    0.7502271062    0.0238504168
H940       H    0.5078270546    0.7498061757   -0.0212113868
C1877      C    0.3795595929    0.1590388592    0.8489700601
C1878      C    0.3746843819    0.1698495767    0.8752875659
C1879      C    0.3496043928    0.1837889690    0.8820840224
C1880      C    0.3298985154    0.1867241122    0.8628307215
C1881      C    0.3349697313    0.1759016441    0.8367855970
C1882      C    0.3597502461    0.1620831820    0.8298428124
C1883      C    0.3958600162    0.1667379703    0.8953850587
F1884      F    0.3439681803    0.1940098713    0.9074418870
H1885      H    0.3105934454    0.1973240698    0.8680734519
F1886      F    0.3645790259    0.1516919920    0.8044977010
H1887      H    0.3987966411    0.1485219765    0.8431742682
C1888      C    0.4083584306    0.1410561881    0.9006668242
C1889      C    0.4284505416    0.1384782938    0.9195490364
C1890      C    0.4362560560    0.1613251892    0.9332331956
C1891      C    0.4240195204    0.1868506957    0.9281367953
C1892      C    0.4039094640    0.1896083936    0.9093040030
F1893      F    0.4007284752    0.1184579994    0.8880381918
H1894      H    0.4379681090    0.1187508454    0.9236922645
F1895      F    0.4317474030    0.2089578407    0.9414296285
H1896      H    0.3948231357    0.2096011726    0.9053544001
C1857      C    0.1180223014    0.3505830228    0.6980418127
C1858      C    0.1167149489    0.3393410844    0.7242632156
C1859      C    0.0959729137    0.3488873960    0.7431491904
C1860      C    0.0769824126    0.3692443086    0.7357693678
C1861      C    0.0784851585    0.3802357152    0.7096882996
C1862      C    0.0989621593    0.3709408415    0.6908420229
C1863      C    0.1371191058    0.3179275186    0.7318207255
F1864      F    0.0937417021    0.3381352059    0.7684550582
H1865      H    0.0609824941    0.3765003007    0.7502250172
F1866      F    0.1003575242    0.3817510089    0.6655783336
H1867      H    0.1339644390    0.3438015000    0.6832803851
C1868      C    0.1427202385    0.2946883644    0.7154072646
C1869      C    0.1621746833    0.2747499395    0.7227087591
C1870      C    0.1761697816    0.2777764074    0.7462642390
C1871      C    0.1707884416    0.3007208797    0.7626472134
C1872      C    0.1513649813    0.3207433264    0.7555063328
F1873      F    0.1289876134    0.2910098073    0.6927070147
H1874      H    0.1663977989    0.2568539335    0.7101747088
F1875      F    0.1845032074    0.3035728938    0.7854424713
H1876      H    0.1476389781    0.3385741402    0.7682739580
C1837      C    0.2826613166    1.0664999273    0.6599487263
C1838      C    0.2942384589    1.0772887687    0.6358899947
C1839      C    0.2984088088    1.1053146433    0.6345739985
C1840      C    0.2911240120    1.1220540428    0.6569821258
C1841      C    0.2796600416    1.1111110735    0.6807452492
C1842      C    0.2754225974    1.0833870410    0.6822483481
C1843      C    0.3016546526    1.0593056083    0.6122594737
F1844      F    0.3100359549    1.1163491657    0.6118962744
H1845      H    0.2944283491    1.1435543728    0.6560237412
F1846      F    0.2642111800    1.0729014596    0.7053502059
H1847      H    0.2789676293    1.0450825811    0.6613349510
C1848      C    0.3177526769    1.0351252204    0.6152044479
C1849      C    0.3244172296    1.0182659558    0.5927481349
C1850      C    0.3151333310    1.0252769240    0.5673141248
C1851      C    0.2991650469    1.0491669110    0.5641847037
C1852      C    0.2924185046    1.0661427756    0.5865215979
F1853      F    0.3274900367    1.0281474872    0.6396027281
H1854      H    0.3368688540    0.9997608264    0.5949781368
F1855      F    0.2901516715    1.0558129018    0.5394570421
H1856      H    0.2797578260    1.0844588329    0.5838206533
C1817      C    0.3850236403    0.7556268101    0.0817807391
C1818      C    0.3903852543    0.7418604766    0.1060527505
C1819      C    0.4168842282    0.7310922768    0.1098660750
C1820      C    0.4374904282    0.7341626118    0.0897178900
C1821      C    0.4319231453    0.7478692800    0.0657237362
C1822      C    0.4057431462    0.7585873250    0.0617375620
C1823      C    0.3682743071    0.7386065880    0.1271113714
F1824      F    0.4229393976    0.7181695648    0.1332516952
H1825      H    0.4578666908    0.7260001480    0.0926837699
F1826      F    0.4004517825    0.7718040167    0.0383637253
H1827      H    0.3647509817    0.7637997435    0.0782525812
C1828      C    0.3517254521    0.7611630898    0.1366089158
C1829      C    0.3308133019    0.7577340959    0.1563486593
C1830      C    0.3261980582    0.7319560156    0.1667192906
C1831      C    0.3424575034    0.7094847132    0.1574373257
C1832      C    0.3634136296    0.7127320134    0.1377189053
F1833      F    0.3561627170    0.7865124694    0.1272517013
H1834      H    0.3181790394    0.7750613400    0.1637266615
F1835      F    0.3378178578    0.6845059010    0.1675291363
H1836      H    0.3756589933    0.6950462884    0.1305068516
C1797      C    0.2829779925    0.8612762798    0.3984542982
C1798      C    0.2983600095    0.8570333798    0.3738437725
C1799      C    0.3215889395    0.8719354690    0.3686288956
C1800      C    0.3291538617    0.8906323231    0.3877767558
C1801      C    0.3137326804    0.8946593008    0.4121258802
C1802      C    0.2906792675    0.8800221759    0.4174758515
C1803      C    0.2899489959    0.8372941476    0.3536820982
F1804      F    0.3372355995    0.8679815087    0.3453519799
H1805      H    0.3470529784    0.9019955993    0.3838342549
F1806      F    0.2757488367    0.8840831153    0.4411197170
H1807      H    0.2648692403    0.8502967939    0.4027801237
C1808      C    0.2844029300    0.8105533065    0.3613737069
C1809      C    0.2762953673    0.7922175292    0.3421520299
C1810      C    0.2736184498    0.8003118410    0.3152635741
C1811      C    0.2790432452    0.8267505530    0.3074422383
C1812      C    0.2871704891    0.8452057127    0.3265223684
F1813      F    0.2873979733    0.8020308323    0.3872642432
H1814      H    0.2721467359    0.7716556047    0.3480242315
F1815      F    0.2763271101    0.8345013422    0.2813269977
H1816      H    0.2910122423    0.8657387713    0.3201975414
C1777      C    0.1272623643    0.6179834413    0.2831193801
C1778      C    0.1310837588    0.5917030255    0.2719768717
C1779      C    0.1541915634    0.5853356844    0.2547106715
C1780      C    0.1730142513    0.6049718510    0.2488509020
C1781      C    0.1690047319    0.6309759506    0.2600351080
C1782      C    0.1461748854    0.6374950912    0.2771383079
C1783      C    0.1108392745    0.5711945917    0.2782281011
F1784      F    0.1588369614    0.5600317609    0.2440306373
H1785      H    0.1908201889    0.6000597580    0.2356878490
F1786      F    0.1423586060    0.6628019109    0.2878687454
H1787      H    0.1095011864    0.6234502127    0.2961873860
C1788      C    0.1021984560    0.5657395772    0.3052796811
C1789      C    0.0829321142    0.5464666534    0.3108422172
C1790      C    0.0721343261    0.5325616324    0.2896366293
C1791      C    0.0805405117    0.5378265727    0.2627775621
C1792      C    0.0997997816    0.5570498923    0.2570362688
F1793      F    0.1128065217    0.5785840529    0.3262735394
H1794      H    0.0763791493    0.5421918236    0.3316104234
F1795      F    0.0699189501    0.5243166776    0.2422842595
H1796      H    0.1058887676    0.5611220796    0.2360713035
C1757      C    0.6712344064    0.1503635663    0.1308362382
C1758      C    0.6699507778    0.1617995992    0.1047764849
C1759      C    0.6927706733    0.1743297312    0.0932412706
C1760      C    0.7163297915    0.1752727914    0.1076096863
C1761      C    0.7173609079    0.1638477249    0.1334491525
C1762      C    0.6948645053    0.1514135338    0.1450643721
C1763      C    0.6447612425    0.1608075493    0.0899085275
F1764      F    0.6924697649    0.1850907434    0.0679200941
H1765      H    0.7338975517    0.1847882835    0.0987151913
F1766      F    0.6959676997    0.1404290144    0.1701911274
H1767      H    0.6538507621    0.1409069492    0.1402520807
C1768      C    0.6322040583    0.1361228922    0.0866407568
C1769      C    0.6083300778    0.1355497193    0.0727269514
C1770      C    0.5967951193    0.1594210435    0.0620373869
C1771      C    0.6090588479    0.1839732876    0.0651780697
C1772      C    0.6329332026    0.1847269815    0.0790466211
F1773      F    0.6433272897    0.1125498152    0.0963595972
H1774      H    0.5987478177    0.1165857762    0.0701157263
F1775      F    0.5977129413    0.2070851511    0.0548229211
H1776      H    0.6420370546    0.2039919764    0.0815745421
C1737      C    0.8820637815    0.2918477705    0.2727138786
C1738      C    0.9028662769    0.3027504632    0.2562280932
C1739      C    0.9102603509    0.2906136217    0.2308407950
C1740      C    0.8969780910    0.2680574642    0.2222600155
C1741      C    0.8763630787    0.2574273090    0.2387941356
C1742      C    0.8689045030    0.2692815740    0.2639822530
C1743      C    0.9168753847    0.3265341248    0.2657127342
F1744      F    0.9298563117    0.3009112654    0.2141494756
H1745      H    0.9025674475    0.2588014124    0.2027186813
F1746      F    0.8489279742    0.2588159453    0.2799741180
H1747      H    0.8762432797    0.3006291091    0.2924409912
C1748      C    0.9020013100    0.3501361025    0.2752422251
C1749      C    0.9155103598    0.3723420144    0.2843100832
C1750      C    0.9437866128    0.3712345573    0.2840052438
C1751      C    0.9587041126    0.3479517072    0.2746262370
C1752      C    0.9453640119    0.3256673180    0.2655132498
F1753      F    0.8745185666    0.3519205207    0.2752154909
H1754      H    0.9041030698    0.3905055061    0.2915194380
F1755      F    0.9861442099    0.3469782872    0.2744600003
H1756      H    0.9572207784    0.3076340932    0.2585803540
C1717      C    0.8120747041    1.0186666942    0.3759499286
C1718      C    0.8215272816    1.0450020572    0.3773324401
C1719      C    0.8312585078    1.0540524968    0.4019117647
C1720      C    0.8314948295    1.0369551090    0.4245387815
C1721      C    0.8220698631    1.0108639692    0.4229153340
C1722      C    0.8123683387    1.0017151665    0.3986761378
C1723      C    0.8209474413    1.0629358410    0.3532288308
F1724      F    0.8410518179    1.0791284808    0.4038443357
H1725      H    0.8390723752    1.0438511755    0.4433825516
F1726      F    0.8031722769    0.9763907074    0.3972548534
H1727      H    0.8042061667    1.0113740383    0.3573789977
C1728      C    0.8322289309    1.0537919388    0.3277864756
C1729      C    0.8313494191    1.0708899863    0.3051842521
C1730      C    0.8192649118    1.0970812666    0.3076944486
C1731      C    0.8080181605    1.1063254084    0.3327930201
C1732      C    0.8088206816    1.0893725358    0.3554934424
F1733      F    0.8445860258    1.0286150065    0.3249481259
H1734      H    0.8401086063    1.0639177715    0.2856762781
F1735      F    0.7962461352    1.1317427931    0.3350732082
H1736      H    0.7997345307    1.0967413454    0.3747621462
C1697      C    0.6804482084    0.7689667237    0.9004492059
C1698      C    0.6632103520    0.7474891593    0.8976143120
C1699      C    0.6715359507    0.7258344321    0.8798997189
C1700      C    0.6966487160    0.7258089360    0.8654240430
C1701      C    0.7135793136    0.7472307444    0.8684127190
C1702      C    0.7055133542    0.7687844894    0.8858850556
C1703      C    0.6365765023    0.7479290514    0.9129460359
F1704      F    0.6556863189    0.7044953019    0.8770659710
H1705      H    0.7031025997    0.7091305899    0.8519078122
F1706      F    0.7220092394    0.7895601893    0.8886367049
H1707      H    0.6743550445    0.7859847395    0.9136976359
C1708      C    0.6345788778    0.7523956756    0.9412261145
C1709      C    0.6092733458    0.7529489815    0.9553802294
C1710      C    0.5858632977    0.7491181802    0.9415725319
C1711      C    0.5876184588    0.7446991241    0.9135674354
C1712      C    0.6128336550    0.7441019676    0.8992629551
F1713      F    0.6571030392    0.7556158309    0.9551946937
H1714      H    0.6077454616    0.7562633515    0.9771060484
F1715      F    0.5648071488    0.7410760327    0.9002747013
H1716      H    0.6138210436    0.7409517589    0.8774881407
C1677      C    0.9012169668    0.6282670356    0.7274231127
C1678      C    0.9061154973    0.6061866760    0.7448732462
C1679      C    0.8960924663    0.6080171077    0.7721446438
C1680      C    0.8814495579    0.6315202221    0.7815877941
C1681      C    0.8767130045    0.6532924180    0.7640771528
C1682      C    0.8865727741    0.6516938026    0.7370397838
C1683      C    0.9218439974    0.5815097489    0.7345955180
F1684      F    0.8999458832    0.5869087368    0.7894290783
H1685      H    0.8736489268    0.6328917900    0.8024955242
F1686      F    0.8819734828    0.6729329696    0.7201621624
H1687      H    0.9089869301    0.6274605864    0.7064664261
C1688      C    0.9149062896    0.5684052963    0.7107444648
C1689      C    0.9300677062    0.5452479119    0.7011940679
C1690      C    0.9521672838    0.5350149810    0.7152087006
C1691      C    0.9592175738    0.5478510369    0.7388365628
C1692      C    0.9441643790    0.5710015548    0.7485325203
F1693      F    0.8931715758    0.5776329972    0.6970675323
H1694      H    0.9246783696    0.5351171049    0.6829492584
F1695      F    0.9807420251    0.5378609604    0.7522990173
H1696      H    0.9500796438    0.5809050030    0.7667309849
C1657      C    0.8438854786    0.8642619055    0.6230243353
C1658      C    0.8203456267    0.8509640368    0.6311486658
C1659      C    0.7975004643    0.8538593151    0.6152943427
C1660      C    0.7983761109    0.8697411578    0.5917955784
C1661      C    0.8218518952    0.8828305424    0.5839382164
C1662      C    0.8445773681    0.8801142105    0.5995109622
C1663      C    0.8196848338    0.8343772337    0.6562154734
F1664      F    0.7746244870    0.8408853662    0.6221961703
H1665      H    0.7808806513    0.8718773236    0.5795509468
F1666      F    0.8672808622    0.8929386437    0.5918160547
H1667      H    0.8615863870    0.8625994732    0.6350491707
C1668      C    0.8402671635    0.8142012906    0.6605795399
C1669      C    0.8394635105    0.7988480873    0.6844298222
C1670      C    0.8182985023    0.8034485449    0.7040494612
C1671      C    0.7978277400    0.8233914876    0.6999335406
C1672      C    0.7984668930    0.8388224974    0.6761454281
F1673      F    0.8607574778    0.8089616335    0.6415615485
H1674      H    0.8551986265    0.7832811542    0.6877350327
F1675      F    0.7773838694    0.8278098945    0.7190955389
H1676      H    0.7825903959    0.8544288708    0.6733913504
C1637      C    0.7268222590    0.3435520027    1.0737713795
C1638      C    0.7145837838    0.3428189431    1.1001594605
C1639      C    0.6954218259    0.3637402532    1.1085769954
C1640      C    0.6887268779    0.3848679694    1.0908104798
C1641      C    0.7010015147    0.3853691540    1.0646740469
C1642      C    0.7200214195    0.3647612805    1.0561483465
C1643      C    0.7220566694    0.3203946391    1.1188027564
F1644      F    0.6827902251    0.3634170986    1.1336928277
H1645      H    0.6739294678    0.4008755008    1.0972225060
F1646      F    0.7319246913    0.3654071886    1.0307748543
H1647      H    0.7418381367    0.3278738656    1.0669517541
C1648      C    0.7215688592    0.2930758628    1.1105282980
C1649      C    0.7288661002    0.2721423895    1.1282882812
C1650      C    0.7367040921    0.2781931399    1.1542826250
C1651      C    0.7372738374    0.3051779405    1.1626678807
C1652      C    0.7299988060    0.3262276599    1.1450493763
F1653      F    0.7134855982    0.2866589103    1.0855607451
H1654      H    0.7283843185    0.2511674012    1.1219838073
F1655      F    0.7449794719    0.3109137264    1.1878983300
H1656      H    0.7308372919    0.3470691237    1.1517542554
C1617      C    0.7451185935    0.5986930340    0.8611185100
C1618      C    0.7218510038    0.6028837644    0.8786155061
C1619      C    0.7067645655    0.6279290016    0.8778794522
C1620      C    0.7149111928    0.6482439628    0.8599111414
C1621      C    0.7380306785    0.6438432833    0.8426435290
C1622      C    0.7531261456    0.6191215895    0.8432308946
C1623      C    0.7136123489    0.5812217704    0.8976777123
F1624      F    0.6838951308    0.6324990117    0.8940668461
H1625      H    0.7032699866    0.6674353662    0.8592549082
F1626      F    0.7755970268    0.6150048727    0.8264703502
H1627      H    0.7572173928    0.5797347126    0.8615380602
C1628      C    0.7109386340    0.5545161495    0.8884002196
C1629      C    0.7033370088    0.5342501395    0.9066734278
C1630      C    0.6983947554    0.5403542760    0.9341945865
C1631      C    0.7010037989    0.5667305250    0.9435920375
C1632      C    0.7085810268    0.5871141456    0.9254634278
F1633      F    0.7150874633    0.5481995015    0.8616544675
H1634      H    0.7011718076    0.5137741227    0.8995404742
F1635      F    0.6962556949    0.5725017884    0.9703449219
H1636      H    0.7108119778    0.6074136809    0.9331239953
C1597      C    0.1762242850    0.3031761540   -0.1282586664
C1598      C    0.1939506248    0.3029544449   -0.1068797674
C1599      C    0.2118865621    0.2801362846   -0.1036057893
C1600      C    0.2119813918    0.2580917705   -0.1214751487
C1601      C    0.1943025179    0.2585520153   -0.1426155016
C1602      C    0.1764436461    0.2810412307   -0.1460188684
C1603      C    0.1934492017    0.3263928176   -0.0880002461
F1604      F    0.2296620445    0.2794337471   -0.0835516530
H1605      H    0.2258293154    0.2406153438   -0.1190416546
F1606      F    0.1592752830    0.2813293752   -0.1665357892
H1607      H    0.1620380632    0.3203462155   -0.1309917528
C1608      C    0.1951865668    0.3530725442   -0.0979333613
C1609      C    0.1944884559    0.3750004703   -0.0798620787
C1610      C    0.1920311516    0.3705840754   -0.0519012852
C1611      C    0.1902775084    0.3442461083   -0.0418571073
C1612      C    0.1909724566    0.3222094951   -0.0597773164
F1613      F    0.1981497197    0.3578418371   -0.1250097685
H1614      H    0.1959363988    0.3954725198   -0.0874766526
F1615      F    0.1878137019    0.3401068548   -0.0146953148
H1616      H    0.1892853046    0.3019222288   -0.0516705517
C1577      C    0.2132130870    0.6249781243    0.1145069687
C1578      C    0.1933778117    0.6063417246    0.1211921493
C1579      C    0.1744551437    0.6122408158    0.1430679308
C1580      C    0.1754755354    0.6363621615    0.1578223300
C1581      C    0.1952468527    0.6546987669    0.1509907295
C1582      C    0.2140955346    0.6490368382    0.1293782682
C1583      C    0.1927047535    0.5807790943    0.1054810562
F1584      F    0.1546883992    0.5950058524    0.1497576483
H1585      H    0.1608794507    0.6409570107    0.1745474294
F1586      F    0.2332898164    0.6668855078    0.1228980504
H1587      H    0.2281674996    0.6207427745    0.0979836966
C1588      C    0.1927689855    0.5811490139    0.0769039714
C1589      C    0.1923271698    0.5568369376    0.0623525765
C1590      C    0.1918574177    0.5320807681    0.0760482251
C1591      C    0.1918087046    0.5314906596    0.1043412097
C1592      C    0.1922353171    0.5556983392    0.1190461620
F1593      F    0.1926562209    0.6049961501    0.0631529079
H1594      H    0.1922611012    0.5571218730    0.0404223642
F1595      F    0.1914335362    0.5073856004    0.1175063569
H1596      H    0.1924966829    0.5548753437    0.1409780478
C1557      C    0.3929711315    1.0536791370    0.8092961593
C1558      C    0.3720431984    1.0440285742    0.7943216998
C1559      C    0.3765657772    1.0193636678    0.7799282651
C1560      C    0.4015653399    1.0047580964    0.7806455109
C1561      C    0.4221722866    1.0145375492    0.7955820850
C1562      C    0.4179078610    1.0389542938    0.8098866461
C1563      C    0.3457426191    1.0598564305    0.7936082217
F1564      F    0.3566640675    1.0091425061    0.7657111851
H1565      H    0.4050098406    0.9857601234    0.7696923911
F1566      F    0.4380234963    1.0483790691    0.8242853853
H1567      H    0.3900839818    1.0727389111    0.8202613255
C1568      C    0.3315788456    1.0688119344    0.8178061639
C1569      C    0.3068748894    1.0838995788    0.8167911660
C1570      C    0.2961360726    1.0901984321    0.7918134979
C1571      C    0.3100100692    1.0814434830    0.7677334874
C1572      C    0.3347097442    1.0663414490    0.7685632323
F1573      F    0.3413213838    1.0624705746    0.8423582960
H1574      H    0.2959410816    1.0906795754    0.8353660220
F1575      F    0.2995139937    1.0876963160    0.7435524550
H1576      H    0.3453765139    1.0599562433    0.7496857996
C1537      C    0.6097593704    0.8609834096    0.8144729901
C1538      C    0.6179848565    0.8503680612    0.7886762901
C1539      C    0.6042625491    0.8597194507    0.7658751379
C1540      C    0.5827947100    0.8793279744    0.7689958130
C1541      C    0.5748238755    0.8897133430    0.7946953338
C1542      C    0.5882642901    0.8805697621    0.8174090422
C1543      C    0.6406389708    0.8294502003    0.7857488689
F1544      F    0.6119891337    0.8503504814    0.7405993809
H1545      H    0.5723263912    0.8866009339    0.7514807067
F1546      F    0.5803762705    0.8906751911    0.8423150143
H1547      H    0.6197869533    0.8538811389    0.8323361845
C1548      C    0.6656943946    0.8334651370    0.7970429828
C1549      C    0.6868162852    0.8134483247    0.7942768817
C1550      C    0.6831841279    0.7893789229    0.7803516593
C1551      C    0.6584465580    0.7851953836    0.7691084998
C1552      C    0.6372301228    0.8051030574    0.7717672603
F1553      F    0.6699108390    0.8569271645    0.8101888122
H1554      H    0.7060895695    0.8165720227    0.8028453663
F1555      F    0.6550273600    0.7617514016    0.7556863567
H1556      H    0.6180570693    0.8014203703    0.7631876775
C1517      C    0.4174405922    0.6982343182    0.8272678538
C1518      C    0.4023780238    0.7100670060    0.8496598392
C1519      C    0.3739259382    0.7130801861    0.8489659930
C1520      C    0.3609664229    0.7043390987    0.8262670260
C1521      C    0.3761303614    0.6926217054    0.8041755620
C1522      C    0.4043188064    0.6895680148    0.8046501364
C1523      C    0.4164413771    0.7194085539    0.8734688174
F1524      F    0.3586842823    0.7238975508    0.8704207932
H1525      H    0.3391117816    0.7065412097    0.8257713290
F1526      F    0.4189314974    0.6782485546    0.7831043382
H1527      H    0.4393489981    0.6959945734    0.8271977910
C1528      C    0.4354465837    0.7020528117    0.8861925695
C1529      C    0.4486973988    0.7112311899    0.9085226233
C1530      C    0.4431993212    0.7376337275    0.9183011614
C1531      C    0.4244288611    0.7549873365    0.9058355397
C1532      C    0.4110820456    0.7459736408    0.8835122147
F1533      F    0.4407274150    0.6761152254    0.8774153879
H1534      H    0.4632029603    0.6978767318    0.9183654691
F1535      F    0.4192450203    0.7806183498    0.9153778940
H1536      H    0.3967946720    0.7597867778    0.8738754158
C1497      C    0.1948306767    0.5457685115    0.7005867203
C1498      C    0.1694789644    0.5587355092    0.7080221972
C1499      C    0.1683345629    0.5860337879    0.7166751339
C1500      C    0.1921648628    0.5999383559    0.7177669114
C1501      C    0.2171992331    0.5868564994    0.7103305229
C1502      C    0.2185554623    0.5598187885    0.7017564357
C1503      C    0.1444396724    0.5436483913    0.7069443588
F1504      F    0.1441922132    0.5993745217    0.7234771130
H1505      H    0.1912878161    0.6209339369    0.7242981370
F1506      F    0.2429307653    0.5472091434    0.6946396142
H1507      H    0.1962530077    0.5247071354    0.6941752821
C1508      C    0.1387390687    0.5294004518    0.6833281304
C1509      C    0.1151195624    0.5150946872    0.6826925427
C1510      C    0.0970894466    0.5148212134    0.7054496911
C1511      C    0.1025549450    0.5288482984    0.7289418371
C1512      C    0.1261112123    0.5432110572    0.7297474922
F1513      F    0.1556695022    0.5298191844    0.6607532195
H1514      H    0.1106805636    0.5042498118    0.6645290294
F1515      F    0.0850094905    0.5284334777    0.7509889908
H1516      H    0.1302118794    0.5537436593    0.7482334707
C1477      C    0.2985000805    0.7900297456    0.6099973328
C1478      C    0.3209885262    0.8063543392    0.6089374807
C1479      C    0.3427242842    0.7997594351    0.6255087491
C1480      C    0.3418320424    0.7772292749    0.6427022185
C1481      C    0.3194112671    0.7611809396    0.6435699030
C1482      C    0.2977697981    0.7675523263    0.6272589565
C1483      C    0.3215228511    0.8302764568    0.5907580522
F1484      F    0.3649989250    0.8147146986    0.6246227152
H1485      H    0.3585666083    0.7720877067    0.6553447973
F1486      F    0.2760256677    0.7519368868    0.6282539253
H1487      H    0.2814147168    0.7948772226    0.5976894917
C1488      C    0.3162949711    0.8278595993    0.5630759467
C1489      C    0.3166801181    0.8506644772    0.5462210135
C1490      C    0.3222064083    0.8759399028    0.5567300219
C1491      C    0.3273914380    0.8785547596    0.5841170908
C1492      C    0.3270596617    0.8558617209    0.6011056355
F1493      F    0.3114221198    0.8034011718    0.5522526689
H1494      H    0.3127804838    0.8487942719    0.5249454405
F1495      F    0.3326617288    0.9031634398    0.5942074126
H1496      H    0.3308261104    0.8582856759    0.6223798108
C1457      C    0.2169082444    0.5620417857    0.9165941822
C1458      C    0.2144256731    0.5542777774    0.8894299887
C1459      C    0.2050280160    0.5284891570    0.8838687617
C1460      C    0.1982566023    0.5109662837    0.9051756553
C1461      C    0.2007982823    0.5189018768    0.9320461023
C1462      C    0.2101093861    0.5443876684    0.9377700061
C1463      C    0.2218812033    0.5730072209    0.8670826113
F1464      F    0.2018475961    0.5205195408    0.8579390103
H1465      H    0.1909294296    0.4912087557    0.9009224502
F1466      F    0.2126070844    0.5519399023    0.9638980656
H1467      H    0.2243858372    0.5816294288    0.9213608984
C1468      C    0.2112954399    0.6001261293    0.8671411732
C1469      C    0.2186781391    0.6176104056    0.8460044410
C1470      C    0.2365931109    0.6083087479    0.8247632447
C1471      C    0.2472047908    0.5814971757    0.8245228459
C1472      C    0.2399226846    0.5638797599    0.8455634300
F1473      F    0.1934094753    0.6094948304    0.8872735341
H1474      H    0.2104672780    0.6383965298    0.8459843379
F1475      F    0.2646482092    0.5726197787    0.8038855687
H1476      H    0.2485693140    0.5432171866    0.8452363047
C1437      C    0.4166736101    0.8336368025    0.7952751336
C1438      C    0.3965406893    0.8399299961    0.7768352022
C1439      C    0.3951534806    0.8659143168    0.7649316907
C1440      C    0.4136397708    0.8850781653    0.7714265998
C1441      C    0.4335307601    0.8785926838    0.7897463178
C1442      C    0.4350621873    0.8529256485    0.8016654988
C1443      C    0.3769799144    0.8194595234    0.7703294266
F1444      F    0.3763547701    0.8725257131    0.7466340115
H1445      H    0.4126575659    0.9049932761    0.7622045011
F1446      F    0.4543712677    0.8467819312    0.8194965598
H1447      H    0.4179428895    0.8139134341    0.8049239199
C1448      C    0.3860471193    0.7929509308    0.7622299415
C1449      C    0.3673275230    0.7738011330    0.7563480662
C1450      C    0.3395713749    0.7808273538    0.7585027085
C1451      C    0.3303814185    0.8070164535    0.7665243772
C1452      C    0.3489545215    0.8262879620    0.7724298557
F1453      F    0.4129443539    0.7857903516    0.7594425769
H1454      H    0.3742847187    0.7534844514    0.7500198813
F1455      F    0.3034086591    0.8136810107    0.7686538923
H1456      H    0.3414879416    0.8464358782    0.7789208070
C1417      C    0.1217980737    0.6839140585    0.3296638407
C1418      C    0.1104154837    0.7017035270    0.3500148967
C1419      C    0.1130098786    0.7298631830    0.3468549663
C1420      C    0.1267106658    0.7398529590    0.3237204506
C1421      C    0.1379123473    0.7220004598    0.3036627786
C1422      C    0.1354769674    0.6940762820    0.3066088465
C1423      C    0.0961391646    0.6907710108    0.3745003255
F1424      F    0.1018134670    0.7476780988    0.3658021483
H1425      H    0.1286084371    0.7614806194    0.3212281849
F1426      F    0.1464661120    0.6768449833    0.2870999450
H1427      H    0.1203413623    0.6621736147    0.3317880474
C1428      C    0.0755573602    0.6723703481    0.3721433876
C1429      C    0.0624067041    0.6620795834    0.3954453803
C1430      C    0.0696186041    0.6699470023    0.4211531628
C1431      C    0.0899853905    0.6881423131    0.4237093182
C1432      C    0.1032261016    0.6985374848    0.4005232325
F1433      F    0.0677948242    0.6648448065    0.3473770979
H1434      H    0.0465281848    0.6480429381    0.3936429984
F1435      F    0.0969443702    0.6956334007    0.4487238679
H1436      H    0.1191970318    0.7124050565    0.4028506300
C1397      C   -0.0789654031    0.6967525710    0.6070909616
C1398      C   -0.0957630774    0.6767915945    0.6177813475
C1399      C   -0.0922974811    0.6500856549    0.6075071712
C1400      C   -0.0723539089    0.6436461125    0.5869821700
C1401      C   -0.0558053524    0.6636256477    0.5765427275
C1402      C   -0.0590891662    0.6901397238    0.5865602926
C1403      C   -0.1169349479    0.6839997611    0.6393834720
F1404      F   -0.1077564516    0.6301695121    0.6177096613
H1405      H   -0.0696061945    0.6231177852    0.5791667381
F1406      F   -0.0430104424    0.7094624832    0.5762839581
H1407      H   -0.0814562451    0.7174857831    0.6144375787
C1408      C   -0.1105150033    0.6978289712    0.6630064210
C1409      C   -0.1307597710    0.7046648075    0.6831235256
C1410      C   -0.1574304009    0.6978620556    0.6798971770
C1411      C   -0.1640038482    0.6841848086    0.6565730158
C1412      C   -0.1438902040    0.6772628388    0.6363694600
F1413      F   -0.0846322508    0.7041698089    0.6668719425
H1414      H   -0.1258171919    0.7151791882    0.7013113960
F1415      F   -0.1899474236    0.6777130896    0.6535305533
H1416      H   -0.1493760321    0.6669182853    0.6182511389
C1377      C    0.1416405053    0.6938221985    0.6454449489
C1378      C    0.1438551636    0.6712804939    0.6278225994
C1379      C    0.1660258685    0.6522803740    0.6295576945
C1380      C    0.1854721659    0.6558925808    0.6486236945
C1381      C    0.1830507633    0.6783367163    0.6660043935
C1382      C    0.1611849090    0.6972835983    0.6644338365
C1383      C    0.1231828740    0.6678626118    0.6075968057
F1384      F    0.1685371742    0.6299938570    0.6132673791
H1385      H    0.2024373671    0.6412490051    0.6500439990
F1386      F    0.1589925290    0.7190725591    0.6813122800
H1387      H    0.1249553244    0.7088623824    0.6442796145
C1388      C    0.0953308755    0.6691860036    0.6154924219
C1389      C    0.0760566794    0.6661164417    0.5961331687
C1390      C    0.0842973600    0.6617637392    0.5688909608
C1391      C    0.1118263798    0.6604384532    0.5608583115
C1392      C    0.1312286583    0.6634724239    0.5800786879
F1393      F    0.0868341716    0.6728390820    0.6419377250
H1394      H    0.0546804801    0.6670171744    0.6022047358
F1395      F    0.1196857675    0.6562894033    0.5343694416
H1396      H    0.1524993768    0.6626944613    0.5734728721
C1357      C    0.6171060962    0.7280960127    0.0906163448
C1358      C    0.6099019590    0.7312169274    0.1184704864
C1359      C    0.5832325198    0.7404763317    0.1265791162
C1360      C    0.5642711222    0.7464067086    0.1070836298
C1361      C    0.5716584369    0.7432226167    0.0795061261
C1362      C    0.5980242232    0.7340889879    0.0712625695
C1363      C    0.6302956621    0.7250391159    0.1388593060
F1364      F    0.5753939990    0.7432036048    0.1532871821
H1365      H    0.5437586213    0.7534058579    0.1133019943
F1366      F    0.6050909273    0.7311157379    0.0444541330
H1367      H    0.6375631767    0.7213142924    0.0838796089
C1368      C    0.6456216927    0.7000829155    0.1382827130
C1369      C    0.6649317358    0.6946313726    0.1575458364
C1370      C    0.6691530805    0.7138866816    0.1774169123
C1371      C    0.6540967231    0.7386691875    0.1781537177
C1372      C    0.6347442631    0.7442797287    0.1589839798
F1373      F    0.6414993167    0.6808102528    0.1195115922
H1374      H    0.6766194151    0.6754308523    0.1571790675
F1375      F    0.6583512908    0.7573045513    0.1974461562
H1376      H    0.6234387075    0.7637278553    0.1596437583
C1337      C    0.8899306633    0.5338101012    0.2753103679
C1338      C    0.8910034798    0.5593966759    0.2877084050
C1339      C    0.9131126997    0.5644896799    0.3034912099
C1340      C    0.9336652616    0.5442936549    0.3066659300
C1341      C    0.9323790724    0.5189879858    0.2942577999
C1342      C    0.9105584143    0.5137305323    0.2786065462
C1343      C    0.8689546013    0.5805048856    0.2843085438
F1344      F    0.9151145647    0.5891155177    0.3153026851
H1345      H    0.9507048048    0.5482317012    0.3186863628
F1346      F    0.9093886686    0.4890936882    0.2666780359
H1347      H    0.8729856933    0.5293119178    0.2633482268
C1348      C    0.8604752704    0.5875808550    0.2582917742
C1349      C    0.8395048633    0.6074031676    0.2554280047
C1350      C    0.8268402555    0.6202546606    0.2783167331
C1351      C    0.8350715784    0.6133824627    0.3041712669
C1352      C    0.8560256808    0.5935998206    0.3072172142
F1353      F    0.8728447023    0.5757797340    0.2356931664
H1354      H    0.8330678484    0.6129213125    0.2354529541
F1355      F    0.8226388136    0.6258766178    0.3263104214
H1356      H    0.8619738388    0.5882792795    0.3274382090
C1317      C    0.8244236610    0.8362433017    0.4031130044
C1318      C    0.7975360814    0.8282019916    0.4039402413
C1319      C    0.7787477823    0.8394130940    0.4239267063
C1320      C    0.7868556602    0.8583049123    0.4426019864
C1321      C    0.8135891766    0.8661303332    0.4415721605
C1322      C    0.8323589171    0.8551297442    0.4218745085
C1323      C    0.7893265194    0.8080071717    0.3841299127
F1324      F    0.7525014422    0.8325571289    0.4250003784
H1325      H    0.7724099270    0.8670073634    0.4578793988
F1326      F    0.8583029086    0.8627513922    0.4210322901
H1327      H    0.8393033501    0.8276711770    0.3881421720
C1328      C    0.7949612888    0.8113785113    0.3560537684
C1329      C    0.7872581158    0.7920409744    0.3376243931
C1330      C    0.7739848604    0.7692870717    0.3469386478
C1331      C    0.7683268507    0.7657482921    0.3747004859
C1332      C    0.7759439340    0.7849854569    0.3932617235
F1333      F    0.8073429281    0.8336094098    0.3464557797
H1334      H    0.7914785861    0.7946805771    0.3160633003
F1335      F    0.7555092309    0.7435744763    0.3836130761
H1336      H    0.7716766377    0.7817914577    0.4147613032
C1297      C    0.6839688913    0.5331670596    0.1268550628
C1298      C    0.6931117848    0.5596923447    0.1263848997
C1299      C    0.7017761470    0.5709820335    0.1013587821
C1300      C    0.7011991766    0.5559140027    0.0773803817
C1301      C    0.6920774838    0.5296173029    0.0781049285
C1302      C    0.6834765997    0.5182410394    0.1027868711
C1303      C    0.6937868728    0.5753085279    0.1520032434
F1304      F    0.7102061200    0.5967140922    0.1000447171
H1305      H    0.7077399129    0.5646148509    0.0581440536
F1306      F    0.6747178898    0.4926710340    0.1033637678
H1307      H    0.6775090732    0.5239409072    0.1458793232
C1308      C    0.6707482844    0.5780873684    0.1700854465
C1309      C    0.6717633391    0.5927232148    0.1942775521
C1310      C    0.6956029509    0.6046219443    0.2006587168
C1311      C    0.7185347889    0.6019745825    0.1829006872
C1312      C    0.7176929073    0.5873904219    0.1586690340
F1313      F    0.6471660771    0.5671833208    0.1640755272
H1314      H    0.6540478864    0.5949569134    0.2081083156
F1315      F    0.7416360690    0.6135058836    0.1892550408
H1316      H    0.7357519601    0.5852654390    0.1452464654
C1277      C    0.8476114314    0.6476950421    0.3742756214
C1278      C    0.8484751026    0.6609020265    0.3994761795
C1279      C    0.8248608803    0.6749374988    0.4105775701
C1280      C    0.8009424576    0.6756090568    0.3966337367
C1281      C    0.8003346768    0.6624205644    0.3716473106
C1282      C    0.8236162032    0.6484854200    0.3604659361
C1283      C    0.8740392988    0.6601656141    0.4138908686
F1284      F    0.8247781692    0.6874492063    0.4351041726
H1285      H    0.7827732484    0.6862845677    0.4052027010
F1286      F    0.8229150433    0.6357891081    0.3361623984
H1287      H    0.8655829976    0.6370475939    0.3651867320
C1288      C    0.8885308357    0.6353459059    0.4185191798
C1289      C    0.9127293633    0.6350021662    0.4319801686
C1290      C    0.9226737274    0.6592344864    0.4408677994
C1291      C    0.9084883163    0.6839216693    0.4363693120
C1292      C    0.8842766121    0.6844489033    0.4229416938
F1293      F    0.8789928894    0.6114665884    0.4105718509
H1294      H    0.9237992424    0.6159435451    0.4356374649
F1295      F    0.9182946892    0.7073778873    0.4449765501
H1296      H    0.8736648949    0.7037991327    0.4193390133
C1257      C    0.3927347736    0.8628433589    0.2265448012
C1258      C    0.3741262711    0.8675168915    0.2062429228
C1259      C    0.3799394078    0.8863528814    0.1855347984
C1260      C    0.4039494942    0.9001146844    0.1852735544
C1261      C    0.4222594839    0.8952996300    0.2055245151
C1262      C    0.4166819789    0.8767048084    0.2261362367
C1263      C    0.3486813244    0.8529161606    0.2069317778
F1264      F    0.3627298696    0.8909776160    0.1653020254
H1265      H    0.4084786664    0.9144935479    0.1693134099
F1266      F    0.4345040164    0.8721796191    0.2457828247
H1267      H    0.3885630431    0.8487004947    0.2428433131
C1268      C    0.3491847636    0.8244326752    0.2095129561
C1269      C    0.3249824968    0.8109642025    0.2103305639
C1270      C    0.3002042410    0.8256588533    0.2086320218
C1271      C    0.2994822952    0.8538713672    0.2060910446
C1272      C    0.3235796409    0.8674953866    0.2052447080
F1273      F    0.3730565955    0.8096407057    0.2106370738
H1274      H    0.3253700569    0.7890893302    0.2121968390
F1275      F    0.2753564144    0.8680215635    0.2045338161
H1276      H    0.3226546409    0.8894239811    0.2035716259
C1237      C    0.5988145748    1.0690666803    0.2030352140
C1238      C    0.6235900334    1.0612129252    0.2142487950
C1239      C    0.6282941043    1.0340348429    0.2223501661
C1240      C    0.6085192859    1.0152180488    0.2191861892
C1241      C    0.5840187521    1.0232522083    0.2080266561
C1242      C    0.5791503880    1.0501241375    0.1999620020
C1243      C    0.6442473122    1.0814523305    0.2176505798
F1244      F    0.6521739452    1.0255893435    0.2327365172
H1245      H    0.6121665773    0.9943205812    0.2252954843
F1246      F    0.5552901500    1.0578141544    0.1892146946
H1247      H    0.5946074380    1.0899081835    0.1969538476
C1248      C    0.6527080585    1.0979397579    0.1957998708
C1249      C    0.6720788122    1.1170853251    0.1993827441
C1250      C    0.6831055190    1.1199914198    0.2246206564
C1251      C    0.6748513584    1.1037781134    0.2463935088
C1252      C    0.6555082563    1.0845808578    0.2429862010
F1253      F    0.6427027410    1.0951124600    0.1709195928
H1254      H    0.6786619963    1.1296654515    0.1825839048
F1255      F    0.6855752336    1.1067580585    0.2708599392
H1256      H    0.6490930860    1.0723641337    0.2601625618
C1217      C    0.5693255859    0.8288843231    0.2317075848
C1218      C    0.5968841617    0.8292582771    0.2373396014
C1219      C    0.6107125044    0.8531404473    0.2322802987
C1220      C    0.5970805545    0.8761044862    0.2218355710
C1221      C    0.5697328813    0.8754882537    0.2163362067
C1222      C    0.5558599183    0.8519302788    0.2212512180
C1223      C    0.6110818409    0.8046840135    0.2482101166
F1224      F    0.6371571094    0.8544341230    0.2379831262
H1225      H    0.6076574723    0.8944847857    0.2180561434
F1226      F    0.5293305542    0.8514371628    0.2157944864
H1227      H    0.5583531628    0.8106678450    0.2351286009
C1228      C    0.6001397170    0.7911658540    0.2711074464
C1229      C    0.6136809213    0.7678836897    0.2810071162
C1230      C    0.6380790172    0.7578927158    0.2682447963
C1231      C    0.6490766033    0.7711171384    0.2455468575
C1232      C    0.6356810506    0.7944097660    0.2355249461
F1233      F    0.5767357687    0.8008012153    0.2842065446
H1234      H    0.6053454693    0.7575675668    0.2986517768
F1235      F    0.6727252212    0.7612663943    0.2332046435
H1236      H    0.6443255785    0.8042647865    0.2177100607
C1197      C    0.6226332084    0.1560594451    0.9038681375
C1198      C    0.6173512458    0.1786274955    0.8871436030
C1199      C    0.5923904630    0.1936964556    0.8908832951
C1200      C    0.5732335271    0.1862226401    0.9110224160
C1201      C    0.5787106875    0.1637940534    0.9274959005
C1202      C    0.6033578869    0.1487212125    0.9239412487
C1203      C    0.6377856940    0.1861515105    0.8657625045
F1204      F    0.5868088531    0.2159203210    0.8755011259
H1205      H    0.5541119719    0.1978547083    0.9139803384
F1206      F    0.6085201531    0.1269202397    0.9399485882
H1207      H    0.6415380118    0.1439776549    0.9011687305
C1208      C    0.6649272317    0.1893400857    0.8719262060
C1209      C    0.6840193805    0.1962537472    0.8514853229
C1210      C    0.6763059026    0.1999958134    0.8248715315
C1211      C    0.6494852497    0.1968682081    0.8185511181
C1212      C    0.6302673583    0.1899722987    0.8388620218
F1213      F    0.6728041979    0.1863612342    0.8977510118
H1214      H    0.7048303830    0.1988149276    0.8562316353
F1215      F    0.6421491599    0.2004500833    0.7926610889
H1216      H    0.6096014447    0.1873229904    0.8335703692
C1177      C    0.8770434313    0.3042750860    0.7008613805
C1178      C    0.8754145863    0.3278533037    0.7170600332
C1179      C    0.8532822679    0.3322004113    0.7360576652
C1180      C    0.8332963318    0.3132188641    0.7386929437
C1181      C    0.8351390155    0.2898973059    0.7225109037
C1182      C    0.8569621429    0.2854135447    0.7036187113
C1183      C    0.8966569283    0.3478645386    0.7138690379
F1184      F    0.8513205085    0.3544377435    0.7524204533
H1185      H    0.8163587412    0.3164885612    0.7533577161
F1186      F    0.8585923495    0.2627699822    0.6879131689
H1187      H    0.8936916786    0.3006471608    0.6859001463
C1188      C    0.9243355546    0.3395856413    0.7145403594
C1189      C    0.9441534747    0.3586855794    0.7113019640
C1190      C    0.9366297843    0.3860358538    0.7073522156
C1191      C    0.9092781219    0.3944415473    0.7066360281
C1192      C    0.8893357370    0.3754861904    0.7098684649
F1193      F    0.9321403378    0.3132008733    0.7189120329
H1194      H    0.9653969958    0.3523549507    0.7119303357
F1195      F    0.9021156098    0.4210084633    0.7027136119
H1196      H    0.8682108803    0.3822871565    0.7089598802
C1157      C    0.8010528658    0.0397113278    0.6165508518
C1158      C    0.8007224814    0.0661881314    0.6059123641
C1159      C    0.8077343783    0.0698372363    0.5781267999
C1160      C    0.8148665917    0.0473387342    0.5614584084
C1161      C    0.8151124526    0.0211665411    0.5722476879
C1162      C    0.8082257652    0.0173346942    0.5997428761
C1163      C    0.7933149122    0.0898225870    0.6238959893
F1164      F    0.8071089124    0.0950386891    0.5670303597
H1165      H    0.8201398866    0.0501204621    0.5400979907
F1166      F    0.8085805002   -0.0081219481    0.6101104817
H1167      H    0.7960503270    0.0364172544    0.6379045162
C1168      C    0.7693209936    0.0906884046    0.6407063220
C1169      C    0.7627072342    0.1130470829    0.6577123924
C1170      C    0.7798476312    0.1346009081    0.6581542757
C1171      C    0.8036642756    0.1339340084    0.6416011753
C1172      C    0.8104236498    0.1116689632    0.6245314130
F1173      F    0.7520464102    0.0702429099    0.6402302998
H1174      H    0.7442335346    0.1137703620    0.6705346971
F1175      F    0.8202542489    0.1548856440    0.6421874969
H1176      H    0.8291294967    0.1113203494    0.6120320961
C1137      C    0.6768377205    0.3518861944    0.8277313269
C1138      C    0.6943302105    0.3468759714    0.8489496061
C1139      C    0.7120793691    0.3235105559    0.8477712064
C1140      C    0.7122223486    0.3056487540    0.8257172123
C1141      C    0.6947763089    0.3108418913    0.8047827288
C1142      C    0.6771034535    0.3339107974    0.8057678285
C1143      C    0.6937789851    0.3659002873    0.8722732099
F1144      F    0.7296319699    0.3183032219    0.8675942537
H1145      H    0.7259279716    0.2877661948    0.8247443339
F1146      F    0.6601600430    0.3387959906    0.7854176568
H1147      H    0.6627951148    0.3695382072    0.8283410269
C1148      C    0.6957927686    0.3940094251    0.8681119111
C1149      C    0.6950437951    0.4117280190    0.8903277949
C1150      C    0.6922618346    0.4016749450    0.9167313655
C1151      C    0.6902327940    0.3738773720    0.9210718502
C1152      C    0.6909763026    0.3560212998    0.8989812478
F1153      F    0.6990732988    0.4042140513    0.8426567228
H1154      H    0.6967037284    0.4332929741    0.8871441339
F1155      F    0.6874546015    0.3642607763    0.9467507146
H1156      H    0.6890731910    0.3345401912    0.9026803108
C1117      C    0.5742690519    0.0857448114    0.7913107189
C1118      C    0.5917524149    0.0841411507    0.7678374908
C1119      C    0.5946142957    0.0596297172    0.7530016823
C1120      C    0.5801701047    0.0372875380    0.7615956029
C1121      C    0.5628779451    0.0391287166    0.7849154757
C1122      C    0.5599194666    0.0633024077    0.7997655537
C1123      C    0.6070664568    0.1079395973    0.7591236487
F1124      F    0.6108710736    0.0575015339    0.7299475815
H1125      H    0.5822705441    0.0184985569    0.7501475182
F1126      F    0.5431595715    0.0649343353    0.8224325747
H1127      H    0.5719795565    0.1042619408    0.8032223459
C1128      C    0.5937327223    0.1336925861    0.7562878520
C1129      C    0.6084955966    0.1559984166    0.7482362259
C1130      C    0.6365109403    0.1528829527    0.7430029387
C1131      C    0.6499109755    0.1274724889    0.7457690607
C1132      C    0.6353085433    0.1050650199    0.7537956475
F1133      F    0.5664350837    0.1371256080    0.7607147624
H1134      H    0.5982507024    0.1757459524    0.7459468636
F1135      F    0.6771201928    0.1246039393    0.7407364326
H1136      H    0.6460481689    0.0855446851    0.7561423328
C1097      C    0.4494294673    0.1788402840    0.1304813346
C1098      C    0.4221724013    0.1881837266    0.1289549383
C1099      C    0.4102147274    0.1879201986    0.1036621971
C1100      C    0.4253539031    0.1784287388    0.0804757895
C1101      C    0.4523804334    0.1692023921    0.0822479265
C1102      C    0.4644199163    0.1694020753    0.1071944569
C1103      C    0.4064751885    0.1983666238    0.1536796236
F1104      F    0.3838097310    0.1962592581    0.1015105616
H1105      H    0.4161493318    0.1781128407    0.0610715746
F1106      F    0.4906907090    0.1604915489    0.1087651060
H1107      H    0.4591527666    0.1791433088    0.1496304152
C1108      C    0.4055522759    0.1828148312    0.1776509824
C1109      C    0.3908090751    0.1927889338    0.2008793901
C1110      C    0.3769641772    0.2182074478    0.2004567017
C1111      C    0.3777639531    0.2337758681    0.1768285781
C1112      C    0.3924414267    0.2239549351    0.1535146126
F1113      F    0.4183815061    0.1578028863    0.1784056377
H1114      H    0.3900026306    0.1808071370    0.2192493877
F1115      F    0.3643465343    0.2584677846    0.1765787873
H1116      H    0.3931106592    0.2364134770    0.1354303367
C1077      C    0.1329885237    0.3886332047    0.2784020217
C1078      C    0.1366878023    0.3655455230    0.2948211405
C1079      C    0.1147777555    0.3572931717    0.3117298064
C1080      C    0.0897318180    0.3719348581    0.3120493507
C1081      C    0.0863072697    0.3948052441    0.2956610554
C1082      C    0.1078837164    0.4031614870    0.2788620899
C1083      C    0.1634170870    0.3503778720    0.2943936430
F1084      F    0.1174309416    0.3348014219    0.3274347517
H1085      H    0.0728682337    0.3655403373    0.3249413819
F1086      F    0.1044507719    0.4254292324    0.2630585538
H1087      H    0.1496143952    0.3955530406    0.2654787538
C1088      C    0.1767533306    0.3417569888    0.2696626685
C1089      C    0.2020623223    0.3276327810    0.2695800707
C1090      C    0.2142621031    0.3220325082    0.2939806681
C1091      C    0.2012347585    0.3304962514    0.3185789418
C1092      C    0.1759267450    0.3446143618    0.3188474905
F1093      F    0.1650579443    0.3464641970    0.2457123801
H1094      H    0.2122531337    0.3209123445    0.2506077329
F1095      F    0.2132251143    0.3250656452    0.3421866440
H1096      H    0.1662179457    0.3513089988    0.3380837275
C1057      C    0.2984050281    0.1161000040    0.3647731805
C1058      C    0.3200110077    0.1101804370    0.3816159751
C1059      C    0.3410009487    0.1283361912    0.3824043477
C1060      C    0.3402103015    0.1519104845    0.3666282203
C1061      C    0.3186614812    0.1575673277    0.3500010126
C1062      C    0.2977865234    0.1397068589    0.3490551479
C1063      C    0.3206436944    0.0850093006    0.3980488863
F1064      F    0.3618897079    0.1235770075    0.3988307269
H1065      H    0.3562622202    0.1659169080    0.3673135839
F1066      F    0.2769622263    0.1452752511    0.3328106471
H1067      H    0.2822041652    0.1022975838    0.3635856521
C1068      C    0.2980504169    0.0784117139    0.4149159869
C1069      C    0.2988874283    0.0544835503    0.4301515784
C1070      C    0.3220830085    0.0369954703    0.4287061369
C1071      C    0.3445575522    0.0433315177    0.4120518976
C1072      C    0.3438981458    0.0672145237    0.3967638786
F1073      F    0.2754718443    0.0953587075    0.4170984035
H1074      H    0.2815900534    0.0494694966    0.4431886127
F1075      F    0.3669801859    0.0262280985    0.4106792840
H1076      H    0.3613941171    0.0716915367    0.3837052675
C1037      C    0.1868558895    0.3570229837    0.1231474506
C1038      C    0.2144428264    0.3526119949    0.1283048630
C1039      C    0.2339296449    0.3663805915    0.1125249725
C1040      C    0.2258021985    0.3841970205    0.0920683791
C1041      C    0.1983687371    0.3884125432    0.0871474578
C1042      C    0.1789120732    0.3748578065    0.1026434603
C1043      C    0.2227296975    0.3335095702    0.1499212963
F1044      F    0.2606815387    0.3630566561    0.1172839324
H1045      H    0.2407462179    0.3948632327    0.0800231332
F1046      F    0.1523162243    0.3789780498    0.0977122512
H1047      H    0.1715354279    0.3464332023    0.1347934280
C1048      C    0.2105388250    0.3356832426    0.1763810886
C1049      C    0.2184404492    0.3173791656    0.1965120079
C1050      C    0.2384105564    0.2968438079    0.1904980257
C1051      C    0.2505952762    0.2945037247    0.1643558897
C1052      C    0.2428274304    0.3127221272    0.1441147906
F1053      F    0.1914769794    0.3558154365    0.1828766954
H1054      H    0.2091678137    0.3191120869    0.2168545020
F1055      F    0.2699096428    0.2744742534    0.1586318186
H1056      H    0.2522620722    0.3104487052    0.1238502841
C1017      C    0.4306510442    0.0739834046    0.2314615780
C1018      C    0.4038943218    0.0714233069    0.2238712066
C1019      C    0.3976862483    0.0482841236    0.2091339764
C1020      C    0.4179501624    0.0281907348    0.2022502451
C1021      C    0.4444233420    0.0309558695    0.2099024345
C1022      C    0.4507876140    0.0538046320    0.2244789034
C1023      C    0.3827057298    0.0929986598    0.2311494293
F1024      F    0.3719822151    0.0448524264    0.2019424518
H1025      H    0.4131704580    0.0103638326    0.1910357167
F1026      F    0.4765453469    0.0564065987    0.2317790943
H1027      H    0.4359801395    0.0917319590    0.2425170794
C1028      C    0.3786141525    0.1025177594    0.2580830061
C1029      C    0.3586669776    0.1230288493    0.2645954654
C1030      C    0.3427339590    0.1342041574    0.2444544176
C1031      C    0.3466356446    0.1249348573    0.2177186842
C1032      C    0.3665207502    0.1044300244    0.2110341493
F1033      F    0.3934639681    0.0915885445    0.2781297267
H1034      H    0.3554437261    0.1302608937    0.2852894342
F1035      F    0.3311553942    0.1359256843    0.1982496980
H1036      H    0.3695019367    0.0976702994    0.1901364343
C997       C   -0.1181087394    0.2017198626    0.3483571136
C998       C   -0.1233655724    0.2241846830    0.3657999650
C999       C   -0.1474125526    0.2404995566    0.3634546296
C1000      C   -0.1657381267    0.2342955374    0.3440244572
C1001      C   -0.1603017244    0.2119472607    0.3268370552
C1002      C   -0.1365339392    0.1956760361    0.3289777457
C1003      C   -0.1036374452    0.2305974303    0.3861413803
F1004      F   -0.1534313886    0.2620098917    0.3803009797
H1005      H   -0.1842608122    0.2467469398    0.3422922150
F1006      F   -0.1313362419    0.1740538039    0.3121775410
H1007      H   -0.0996163549    0.1890711297    0.3495614279
C1008      C   -0.0938751559    0.2105069944    0.4040189994
C1009      C   -0.0751113510    0.2168239761    0.4229736588
C1010      C   -0.0659273697    0.2430423701    0.4242617261
C1011      C   -0.0754533309    0.2630790991    0.4066378647
C1012      C   -0.0942208158    0.2569427012    0.3876376906
F1013      F   -0.1029175639    0.1850161096    0.4035427004
H1014      H   -0.0676998527    0.2014367995    0.4367766069
F1015      F   -0.0663950292    0.2884676575    0.4079398656
H1016      H   -0.1011881691    0.2726390736    0.3739002841
C977       C    0.0951425077    0.1977487639    0.6745372547
C978       C    0.1078154180    0.2125053855    0.6534969122
C979       C    0.1350162298    0.2190399318    0.6555651885
C980       C    0.1491152755    0.2108613509    0.6782737645
C981       C    0.1363247480    0.1962214918    0.6990163775
C982       C    0.1093856311    0.1896686913    0.6971759146
C983       C    0.0925240626    0.2211943409    0.6296685356
F984       F    0.1480775464    0.2327703782    0.6354081523
H985       H    0.1700367159    0.2157722202    0.6798184481
F986       F    0.0970587039    0.1755195312    0.7174201144
H987       H    0.0741595578    0.1927634213    0.6735536000
C988       C    0.0783919723    0.2024107598    0.6151089301
C989       C    0.0638911928    0.2109622709    0.5927831976
C990       C    0.0633075216    0.2381448213    0.5848262363
C991       C    0.0772176618    0.2569105071    0.5991178329
C992       C    0.0917737020    0.2485334329    0.6214507666
F993       F    0.0791095272    0.1757671042    0.6221019767
H994       H    0.0531347890    0.1965269827    0.5815327190
F995       F    0.0765017839    0.2832819397    0.5913374024
H996       H    0.1022130370    0.2634031077    0.6325136977
C957       C   -0.1040292727    0.2336636280    0.5996230134
C958       C   -0.1274334435    0.2471777606    0.5901107886
C959       C   -0.1254868022    0.2615868279    0.5654692497
C960       C   -0.1005596823    0.2623212585    0.5507503367
C961       C   -0.0774806977    0.2488257657    0.5603930000
C962       C   -0.0791867007    0.2345193066    0.5847854764
C963       C   -0.1536487238    0.2463678493    0.6060575871
F964       F   -0.1477441993    0.2744071227    0.5553800412
H965       H   -0.0990764821    0.2732846646    0.5317702314
F966       F   -0.0566893258    0.2215254079    0.5940772055
H967       H   -0.1049556281    0.2227235576    0.6186622340
C968       C   -0.1635977024    0.2214786458    0.6150188884
C969       C   -0.1882789775    0.2210627005    0.6302189731
C970       C   -0.2031682534    0.2452907825    0.6366247788
C971       C   -0.1934866689    0.2700461185    0.6278650343
C972       C   -0.1688411212    0.2706459887    0.6126510240
F973       F   -0.1497719702    0.1976113197    0.6085763021
H974       H   -0.1959775403    0.2019526399    0.6370037507
F975       F   -0.2079996117    0.2934964511    0.6342218121
H976       H   -0.1614577177    0.2900434834    0.6062628409
C937       C    0.1217958811    0.2549932991    0.4208996316
C938       C    0.1178677046    0.2428483478    0.3957021302
C939       C    0.0922373909    0.2333007177    0.3907611783
C940       C    0.0710661491    0.2359683843    0.4107212818
C941       C    0.0752090755    0.2480621749    0.4356410745
C942       C    0.1005213082    0.2575615609    0.4407460262
C943       C    0.1405727518    0.2399938307    0.3748472854
F944       F    0.0875373507    0.2219733830    0.3664896025
H945       H    0.0513494995    0.2287463821    0.4068956777
F946       F    0.1044353471    0.2692120801    0.4650108327
H947       H    0.1413989542    0.2621968854    0.4252857900
C948       C    0.1555771088    0.2624735474    0.3670514279
C949       C    0.1770748074    0.2594121000    0.3474823528
C950       C    0.1838065893    0.2340762986    0.3355981291
C951       C    0.1690887909    0.2116834543    0.3431889671
C952       C    0.1475611724    0.2145661774    0.3627246663
F953       F    0.1490722241    0.2874332128    0.3778996804
H954       H    0.1885239522    0.2766880822    0.3414102611
F955       F    0.1757800871    0.1871294163    0.3316334532
H956       H    0.1365307941    0.1969269537    0.3686154354
loop_
_geom_bond_atom_site_label_1
_geom_bond_atom_site_label_2
_geom_bond_distance
_geom_bond_site_symmetry_2
_ccdc_geom_bond_type
