data_spn_v1-3c_tricenter_v2-6c_Zr_1_Ch_1-1B_2F_Chnobond
_audit_creation_date              2024-10-26
_audit_creation_method            'tobacco_3.0'
_symmetry_space_group_name_H-M    'P1'
_symmetry_Int_Tables_number       1
_symmetry_cell_setting            triclinic
loop_
_symmetry_equiv_pos_as_xyz
  x,y,z
_cell_length_a                    54.81384969789074
_cell_length_b                    54.671830589190606
_cell_length_c                    54.27253411739424
_cell_angle_alpha                 91.10687717340123
_cell_angle_beta                  91.28325401485326
_cell_angle_gamma                 91.11701069020717
loop_
_atom_site_label
_atom_site_type_symbol
_atom_site_fract_x
_atom_site_fract_y
_atom_site_fract_z
Zr1       Zr    0.7803120653    0.7805871815   -0.0143053282
O2         O    0.8036546781    0.8065674326    0.0042722110
O3         O    0.7841848340    0.7848538260   -0.0548813148
O4         O    0.8183249946    0.7682519569   -0.0204993764
O5         O    0.7289608551    0.8194671616   -0.0110828308
O6         O    0.8192245107    0.7291602641   -0.0116585403
O7         O    0.7678679376    0.8187362746   -0.0201814558
O8         O    0.7581518228    0.7588636363   -0.0731581576
O9         O    0.7737905779    0.7443687275   -0.0271202392
O10        O    0.7440849059    0.7740892831   -0.0269335671
O11        O    0.7842832017    0.7545384122    0.0135424002
O12        O    0.7545781813    0.7842578138    0.0137324948
Zr13      Zr    0.7196927052    0.7194127903    0.0143044694
Zr14      Zr    0.7817415827    0.7182450625   -0.0002016613
Zr15      Zr    0.7182596099    0.7817549304    0.0002014467
Zr16      Zr    0.7387889257    0.7391317500   -0.0434538936
O17        O    0.7104836243    0.8056459363    0.0298706553
O18        O    0.7547987357    0.7114764391   -0.0653814121
O19        O    0.7157173394    0.7454627346   -0.0135460374
O20        O    0.7454230114    0.7157421791   -0.0137327095
O21        O    0.7559162867    0.7259107099    0.0269333524
O22        O    0.7262106147    0.7556312654    0.0271200245
C23        C    0.7738879994    0.7746701944   -0.0722496858
C24        C    0.7482089194    0.8279832012   -0.0176412502
C25        C    0.8276173202    0.7485382644   -0.0181463893
O26        O    0.7893985093    0.6931088763   -0.0290050610
O27        O    0.7710403376    0.6805328313    0.0110826161
O28        O    0.7321332550    0.6812637184    0.0201812411
C29        C    0.7517886953    0.6720168129    0.0176416796
O30        O    0.7878215954    0.7885876168    0.0521788224
Zr31      Zr    0.7612122669    0.7608682430    0.0434536789
O32        O    0.7158163586    0.7151461669    0.0548811001
O33        O    0.8049045309    0.7074412290    0.0292633529
O34        O    0.7881939366    0.7422445471    0.0638384202
O35        O    0.7470915775    0.7886017153    0.0668116794
O36        O    0.7418493699    0.7411363566    0.0731579430
C37        C    0.7261131932    0.7253297985    0.0722494711
O38        O    0.6940164590    0.6952843102   -0.0038164137
O39        O    0.6924515347    0.7901631209   -0.0279086135
O40        O    0.6816761980    0.7317480361    0.0204991617
O41        O    0.6807766820    0.7708397289    0.0116583256
O42        O    0.7116988583    0.7564727463   -0.0648451565
O43        O    0.7094107063    0.7153725947   -0.0546809386
C44        C    0.6723838724    0.7514617286    0.0181461746
H45        H    0.7404945256    0.7856112125   -0.0402150692
H46        H    0.7430347391    0.6991781938   -0.0210800807
H47        H    0.7148349947    0.7590819380    0.0405005104
H48        H    0.8009105957    0.7569899906    0.0206556300
H49        H    0.7467726740    0.7124402478   -0.0818652912
H50        H    0.8150578373    0.6943581005    0.0222329728
H51        H    0.7861747288    0.7470107833    0.0813631171
H52        H    0.7140936246    0.7512221672   -0.0821975172
H53        H    0.6830756094    0.8039889566   -0.0211891617
H54        H    0.6964995197    0.8153799642    0.0240807947
H55        H    0.7536320338    0.7854361885    0.0835964909
H56        H    0.7147550808    0.6983467834   -0.0525937615
H57        H    0.6851970530    0.7051950130   -0.0160782431
H58        H    0.8140068522    0.8136543152   -0.0086242781
H59        H    0.7935989228    0.7865626425    0.0694201177
H60        H    0.7015572823    0.7973709624   -0.0416122010
H61        H    0.7033541222    0.6837095493   -0.0139762398
H62        H    0.7996187079    0.7018501058   -0.0409147466
H63        H    0.7717908220    0.7169944700   -0.0681380245
H64        H    0.7293673207    0.7854400376    0.0681543887
H65        H    0.8166347002    0.7210904252    0.0328454290
H66        H    0.8150472586    0.7972811031    0.0147481050
C67        C    0.7228678823    0.5743905681    0.0352540845
N68        N    0.6998803653    0.5624956359    0.0229311969
C69        C    0.6885865297    0.5390588648    0.0335625985
N70        N    0.7002802111    0.5275170258    0.0565168875
C71        C    0.7232677280    0.5394119581    0.0688397750
N72        N    0.7345615636    0.5628487292    0.0582083735
Zr73      Zr   -0.0104191052    0.4725142340    0.4680399728
O74        O    0.0056375960    0.4498477715    0.4410429813
O75        O   -0.0509186278    0.4674356862    0.4652095223
O76        O   -0.0159967916    0.4341183441    0.4803767323
O77        O   -0.0097242374    0.5243836406    0.4292178581
O78        O   -0.0041811836    0.4332083258    0.5193637076
O79        O   -0.0190994373    0.4850849193    0.4299825652
O80        O   -0.0666470400    0.4928092901    0.4922265380
O81        O   -0.0201589921    0.4784131611    0.5049910920
O82        O   -0.0219860184    0.5084187794    0.4753236361
O83        O    0.0191259681    0.4691890776    0.4931855443
O84        O    0.0173024094    0.4991941377    0.4635191180
Zr85      Zr    0.0233757258    0.5337414670    0.5289934447
Zr86      Zr    0.0084286323    0.4710681211    0.5302149620
Zr87      Zr    0.0045286636    0.5351911877    0.4668184386
Zr88      Zr   -0.0355028668    0.5129857032    0.5111330917
O89        O    0.0320662891    0.5440528950    0.4417589908
O90        O   -0.0551813088    0.4960736880    0.5396296754
O91        O   -0.0061721399    0.5370707895    0.5038468267
O92        O   -0.0043451135    0.5070651711    0.5335142826
O93        O    0.0349433143    0.4978405294    0.5217097645
O94        O    0.0331162879    0.5278461478    0.4920423086
C95        C   -0.0671725252    0.4771663659    0.4761713989
C96        C   -0.0170967829    0.5049421310    0.4207425471
C97        C   -0.0122191450    0.4247317594    0.5000457460
O98        O   -0.0181533453    0.4623431950    0.5564959399
O99        O    0.0226815333    0.4818756682    0.5678155425
O100       O    0.0320567332    0.5211743895    0.5670508354
C101       C    0.0300547541    0.5013207856    0.5762908366
O102       O    0.0546014514    0.4670458992    0.4574906067
Zr103     Zr    0.0484601627    0.4932736056    0.4859003089
O104       O    0.0638759237    0.5388236226    0.5318238783
O105       O    0.0381545913    0.4486519127    0.5398171544
O106       O    0.0697821556    0.4666986816    0.5036716454
O107       O    0.0695256238    0.5083347900    0.4572577314
O108       O    0.0796043359    0.5134500187    0.5048068626
C109       C    0.0801298211    0.5290929429    0.5208620017
O110       O    0.0076506255    0.5587750712    0.5541293998
O111       O   -0.0236388866    0.5602841876    0.4595967415
O112       O    0.0289540875    0.5721409648    0.5166566683
O113       O    0.0171384795    0.5730509831    0.4776696931
O114       O   -0.0577176342    0.5396299438    0.4946897554
O115       O   -0.0443992948    0.5419425866    0.5356732020
C116       C    0.0251764409    0.5815275494    0.4969876546
H117       H   -0.0359868674    0.5116996129    0.4642510049
H118       H   -0.0102761075    0.5091221465    0.5504633269
H119       H    0.0462016154    0.5396825731    0.4881689137
H120       H    0.0257791342    0.4527457789    0.4903279929
H121       H   -0.0714656852    0.5036321047    0.5393290026
H122       H    0.0321216379    0.4381652712    0.5531551890
H123       H    0.0867562659    0.4692861088    0.4982494119
H124       H   -0.0744873473    0.5366676753    0.5005898710
H125       H   -0.0179806865    0.5699870479    0.4455170188
H126       H    0.0257304908    0.5579708851    0.4322907417
H127       H    0.0862979344    0.5022598599    0.4597735019
H128       H   -0.0410522375    0.5365261756    0.5526794104
H129       H   -0.0051562172    0.5673194198    0.5446808553
H130       H   -0.0077891112    0.4391264023    0.4343077882
H131       H    0.0717436834    0.4617580858    0.4588483953
H132       H   -0.0378591667    0.5507893205    0.4527793166
H133       H   -0.0015864186    0.5490225696    0.5660717090
H134       H   -0.0307333997    0.4517955906    0.5480615467
H135       H   -0.0585329650    0.4789883168    0.5340477459
H136       H    0.0713015860    0.5261283250    0.4605273121
H137       H    0.0404877992    0.4370920471    0.5258650408
H138       H    0.0166004590    0.4386733348    0.4499090021
Zr139     Zr   -0.0293367412    0.2695008149    0.2779313096
O140       O   -0.0551671951    0.2525986536    0.3009152723
O141       O   -0.0326483085    0.3100426426    0.2817206547
O142       O   -0.0161434104    0.2770220283    0.3166144941
O143       O   -0.0692002102    0.2649128298    0.2251532891
O144       O    0.0226616667    0.2674662456    0.3184404155
O145       O   -0.0674968637    0.2755986137    0.2644672536
O146       O   -0.0068683411    0.3265307520    0.2560193817
O147       O    0.0069162100    0.2811884134    0.2721814625
O148       O   -0.0233160261    0.2803508740    0.2414807527
O149       O   -0.0038791933    0.2414776833    0.2825665331
O150       O   -0.0341103388    0.2406367496    0.2518665104
Zr151     Zr    0.0298295901    0.2372194808    0.2181403559
Zr152     Zr    0.0325480944    0.2542567938    0.2808381790
Zr153     Zr   -0.0320553521    0.2524627096    0.2152298721
Zr154     Zr    0.0117833089    0.2957963284    0.2369373143
O155       O   -0.0566635895    0.2231707817    0.2068343786
O156       O    0.0401449070    0.3176759690    0.2537424947
O157       O    0.0043708450    0.2652452143    0.2135008310
O158       O    0.0346030811    0.2660827537    0.2442015408
O159       O    0.0238087684    0.2263686293    0.2545872985
O160       O   -0.0064234677    0.2255310899    0.2238865887
C161       C   -0.0223314710    0.3266332509    0.2715469938
C162       C   -0.0771649137    0.2724272106    0.2443943071
C163       C    0.0036479742    0.2746722548    0.3264625368
O164       O    0.0583769692    0.2826579741    0.2891429561
O165       O    0.0696929525    0.2418066736    0.2709147620
O166       O    0.0679896060    0.2311208896    0.2316007976
C167       C    0.0776575493    0.2342915004    0.2516701297
O168       O   -0.0385794638    0.2039794924    0.2853683706
Zr169     Zr   -0.0112905666    0.2109231749    0.2591307368
O170       O    0.0331410508    0.1966768607    0.2143473964
O171       O    0.0431567032    0.2257687530    0.3045052456
O172       O    0.0073847764    0.1914509895    0.2868325891
O173       O   -0.0397226685    0.1877058362    0.2442328506
O174       O    0.0073610834    0.1801887513    0.2400486694
C175       C    0.0228242132    0.1800862524    0.2245210573
O176       O    0.0537572206    0.2536069163    0.1927561154
O177       O   -0.0403573964    0.2794420651    0.1889474999
O178       O    0.0166361527    0.2296974750    0.1794535570
O179       O   -0.0221689244    0.2392532578    0.1776276356
O180       O   -0.0055938759    0.3162364237    0.2091553211
O181       O    0.0351215187    0.3051881407    0.2078088344
C182       C   -0.0031552320    0.2320472486    0.1696055143
H183       H   -0.0345927057    0.2936245038    0.2375774625
H184       H    0.0512264482    0.2729294324    0.2421713510
H185       H   -0.0103772876    0.2118305797    0.2123225927
H186       H   -0.0061414036    0.2351788975    0.2993096001
H187       H    0.0393741782    0.3337185375    0.2456030367
H188       H    0.0565544811    0.2329108486    0.3150629230
H189       H    0.0022187463    0.1740642373    0.2846916693
H190       H    0.0000589203    0.3334580454    0.2116870133
H191       H   -0.0544734472    0.2726575076    0.1791575873
H192       H   -0.0665259011    0.2285234267    0.1924778378
H193       H   -0.0367929943    0.1712548301    0.2509231698
H194       H    0.0521594582    0.3029892434    0.2136059675
H195       H    0.0439603163    0.2656104090    0.1836088904
H196       H   -0.0617504404    0.2659948588    0.3111998092
H197       H   -0.0368119911    0.1870663771    0.2912614583
H198       H   -0.0470690535    0.2935887290    0.1979696718
H199       H    0.0657014383    0.2638527033    0.2024528823
H200       H    0.0501206203    0.2951033090    0.2992561364
H201       H    0.0350430087    0.3212563480    0.2707767614
H202       H   -0.0369546773    0.1855471234    0.2264031853
H203       H    0.0297071565    0.2229999755    0.3160380477
H204       H   -0.0459031134    0.2424916752    0.3126462069
C205       C    0.9653965453    0.4851266941    0.3199201537
N206       N    0.9767849226    0.4622798827    0.3082084068
C207       C    0.9648159285    0.4500659657    0.2850349722
N208       N    0.9414585572    0.4606988601    0.2735732845
C209       C    0.9300701799    0.4835456715    0.2852850315
N210       N    0.9420391739    0.4957595885    0.3084584661
C211       C    0.9839472149    0.3226978862    0.4706056205
N212       N    0.9951109104    0.3114824411    0.4472871332
C213       C    0.9836778569    0.2880908817    0.4352731215
N214       N    0.9610811080    0.2759147675    0.4465775970
C215       C    0.9499174126    0.2871302126    0.4698960843
N216       N    0.9613504660    0.3105217719    0.4819100960
Zr217     Zr    0.4892348583    0.2810032299    0.7797566278
O218       O    0.5064830826    0.3043180115    0.8067729947
O219       O    0.4488759416    0.2849648799    0.7821313306
O220       O    0.4836529012    0.3191521940    0.7670944591
O221       O    0.4907007245    0.2294372330    0.8189535874
O222       O    0.4941319820    0.3201090975    0.7282128806
O223       O    0.4817308442    0.2684669522    0.8178211068
O224       O    0.4319254598    0.2589520368    0.7551169466
O225       O    0.4781463375    0.2745606174    0.7427338278
O226       O    0.4770143201    0.2447206090    0.7725970209
O227       O    0.5179556079    0.2849744464    0.7548885074
O228       O    0.5168270299    0.2551350861    0.7847507029
Zr229     Zr    0.5202518553    0.2202797910    0.7195577999
Zr230     Zr    0.5059510963    0.2825242439    0.7177498053
Zr231     Zr    0.5035362536    0.2187551883    0.7815646712
Zr232     Zr    0.4622018564    0.2395122529    0.7366677419
O233       O    0.5318531887    0.2108501808    0.8069790304
O234       O    0.4417167899    0.2556631815    0.7078417795
O235       O    0.4915283026    0.2163043377    0.7444269667
O236       O    0.4926603200    0.2461443461    0.7145637736
O237       O    0.5324730298    0.2565588233    0.7267174555
O238       O    0.5313410124    0.2267188149    0.7565806486
C239       C    0.4321291198    0.2746975355    0.7710638527
C240       C    0.4838344794    0.2487335756    0.8272210684
C241       C    0.4868543431    0.3285010878    0.7473945640
O242       O    0.4785463013    0.2903103839    0.6911244493
O243       O    0.5187866253    0.2718421993    0.6803608890
O244       O    0.5277565056    0.2328124800    0.6814933697
C245       C    0.5256535066    0.2525422679    0.6720934568
O246       O    0.5547033176    0.2883750141    0.7909485215
Zr247     Zr    0.5472854934    0.2617671794    0.7626467346
O248       O    0.5606114083    0.2163145524    0.7171831458
O249       O    0.5356025518    0.3057051804    0.7083003522
O250       O    0.5682931840    0.2888110499    0.7449096838
O251       O    0.5691835900    0.2475071048    0.7916204623
O252       O    0.5775618901    0.2423273955    0.7441975299
C253       C    0.5773582300    0.2265818967    0.7282506237
O254       O    0.5033736134    0.1946207908    0.6944227247
O255       O    0.4753316399    0.1929238375    0.7886675468
O256       O    0.5258344487    0.1821272382    0.7322200173
O257       O    0.5153553678    0.1811703348    0.7711015958
O258       O    0.4402543187    0.2123642812    0.7530675852
O259       O    0.4521318066    0.2101261452    0.7122267352
C260       C    0.5226330068    0.1727783444    0.7519199124
H261       H    0.4633560135    0.2411274580    0.7835496391
H262       H    0.4861174109    0.2437968818    0.6975621562
H263       H    0.5444339248    0.2152782768    0.7606727232
H264       H    0.5248920091    0.3016254816    0.7577032221
H265       H    0.4253536786    0.2476495702    0.7080249003
H266       H    0.5292215785    0.3159248419    0.6948235778
H267       H    0.5854322165    0.2867400453    0.7505280107
H268       H    0.4233073465    0.2148123743    0.7469707902
H269       H    0.4813721021    0.1834828512    0.8028769403
H270       H    0.5256892029    0.1968234666    0.8164796726
H271       H    0.5859416450    0.2540347453    0.7892368675
H272       H    0.4549508155    0.2155122434    0.6952132094
H273       H    0.4907951957    0.1857858005    0.7037993682
H274       H    0.4934038356    0.3147114565    0.8132967090
H275       H    0.5718628214    0.2941343950    0.7897325049
H276       H    0.4614478256    0.2020690934    0.7952736787
H277       H    0.4938276938    0.2040265179    0.6823137639
H278       H    0.4663709328    0.3005662670    0.6993578688
H279       H    0.4387464791    0.2726951809    0.7132730848
H280       H    0.5706499414    0.2297395872    0.7884906386
H281       H    0.5385478233    0.3174325520    0.7222014301
H282       H    0.5172661892    0.3157355482    0.7979417794
Zr283     Zr    0.2867389671    0.4893049684    0.7723048574
O284       O    0.3130261471    0.5067455195    0.7962374015
O285       O    0.2902461274    0.4488433279    0.7753884717
O286       O    0.2743968867    0.4825017118    0.8105475621
O287       O    0.3254635788    0.4929835148    0.7205348045
O288       O    0.2355925855    0.4919689282    0.8116419438
O289       O    0.3246374535    0.4830649341    0.7596189210
O290       O    0.2639496843    0.4317635418    0.7487466243
O291       O    0.2503832931    0.4773852076    0.7654687309
O292       O    0.2799603392    0.4777163212    0.7354854125
O293       O    0.2612955290    0.5173404432    0.7768833041
O294       O    0.2908714895    0.5176749615    0.7469007130
Zr295     Zr    0.2261747733    0.5202214337    0.7117138880
Zr296     Zr    0.2248552468    0.5044076489    0.7740451869
Zr297     Zr    0.2880585201    0.5051194749    0.7099699604
Zr298     Zr    0.2447951195    0.4620657185    0.7298106806
O299       O    0.3124117631    0.5343295550    0.7027202820
O300       O    0.2168481232    0.4404222909    0.7455287000
O301       O    0.2516193234    0.4921832759    0.7071311159
O302       O    0.2220422773    0.4918521623    0.7371144343
O303       O    0.2329534277    0.5318108026    0.7485297349
O304       O    0.2625304737    0.5321419162    0.7185464164
C305       C    0.2797528206    0.4320168664    0.7646447985
C306       C    0.3338666937    0.4858728354    0.7398270926
C307       C    0.2548052585    0.4849815628    0.8199775652
O308       O    0.1992765526    0.4760826883    0.7811925096
O309       O    0.1874501880    0.5165436089    0.7634803428
O310       O    0.1882763134    0.5264621896    0.7243962263
C311       C    0.1790470997    0.5236550099    0.7441844567
O312       O    0.2959626197    0.5550110010    0.7812336166
Zr313     Zr    0.2681186474    0.5474614052    0.7542044667
O314       O    0.2226676394    0.5606837958    0.7086266756
O315       O    0.2146745718    0.5333309357    0.7980240748
O316       O    0.2499808635    0.5674209973    0.7818544680
O317       O    0.2961735870    0.5704804835    0.7404221840
O318       O    0.2489640825    0.5777635819    0.7352685230
C319       C    0.2331609462    0.5775102574    0.7193703488
O320       O    0.2017377988    0.5032545784    0.6854349642
O321       O    0.2958713049    0.4776460969    0.6833493013
O322       O    0.2385168802    0.5270254120    0.6734675852
O323       O    0.2773211814    0.5175581955    0.6723732035
O324       O    0.2616353083    0.4411323094    0.7020310490
O325       O    0.2208475150    0.4520235625    0.6999353643
C326       C    0.2581085083    0.5245455609    0.6640375821
H327       H    0.2911932571    0.4644006871    0.7315897706
H328       H    0.2053890264    0.4849107778    0.7345575862
H329       H    0.2661979508    0.5456292871    0.7073362775
H330       H    0.2639020608    0.5239770257    0.7938093983
H331       H    0.2174881687    0.4242199167    0.7370929243
H332       H    0.2015202536    0.5263523995    0.8081312490
H333       H    0.2550539245    0.5847845442    0.7801717097
H334       H    0.2560832999    0.4239400310    0.7040964445
H335       H    0.3097616743    0.4842844939    0.6740202886
H336       H    0.3219823519    0.5287255084    0.6884868000
H337       H    0.2933415328    0.5870558188    0.7473650422
H338       H    0.2039232256    0.4542816783    0.7053748336
H339       H    0.2113738358    0.4911011966    0.6762826766
H340       H    0.3198705527    0.4935714414    0.8064225586
H341       H    0.2942746443    0.5720365728    0.7874153243
H342       H    0.3028190212    0.4636970252    0.6922600226
H343       H    0.1900275587    0.4931597149    0.6946550624
H344       H    0.2077882373    0.4638616485    0.7912642228
H345       H    0.2223289979    0.4371933873    0.7626218049
H346       H    0.2930141418    0.5722794412    0.7225609588
H347       H    0.2283693418    0.5363707207    0.8099336938
H348       H    0.3039841069    0.5170547448    0.8079503937
C349       C    0.2919502410    0.3285407611    0.7732357891
N350       N    0.2799074528    0.3171130010    0.7957699551
C351       C    0.2907994569    0.2941943751    0.8074556585
N352       N    0.3137342492    0.2827035092    0.7966071958
C353       C    0.3257770374    0.2941312692    0.7740730298
N354       N    0.3148850333    0.3170498952    0.7623873264
C355       C    0.4394518432    0.4723021751    0.7684542367
N356       N    0.4503884620    0.4492086635    0.7567667987
C357       C    0.4728716651    0.4374888132    0.7688698286
N358       N    0.4844182495    0.4488624745    0.7926602966
C359       C    0.4734816307    0.4719559861    0.8043477345
N360       N    0.4509984275    0.4836758364    0.7922447046
Zr361     Zr    0.2768510614    0.7754433225    0.4643231463
O362       O    0.2597406027    0.7980636234    0.4381048731
O363       O    0.3172556319    0.7796283839    0.4610709948
O364       O    0.2839643849    0.8139156348    0.4775245885
O365       O    0.2727950473    0.7230036595    0.4242450435
O366       O    0.2744322116    0.8156431232    0.5166855603
O367       O    0.2830531415    0.7621304761    0.4258476583
O368       O    0.3339808593    0.7543071456    0.4872472689
O369       O    0.2885879604    0.7698750503    0.5009904311
O370       O    0.2880519516    0.7393875148    0.4705677667
O371       O    0.2488600892    0.7797591415    0.4899442407
O372       O    0.2483206877    0.7492722526    0.4595226663
Zr373     Zr    0.2452895090    0.7157938872    0.5242176887
Zr374     Zr    0.2616447547    0.7781932024    0.5267755549
Zr375     Zr    0.2604950622    0.7130404122    0.4617651837
Zr376     Zr    0.3035247906    0.7350554549    0.5060753094
O377       O    0.2313467200    0.7043911262    0.4368651810
O378       O    0.3251942053    0.7519738796    0.5347155001
O379       O    0.2732831204    0.7114738264    0.4985954079
O380       O    0.2738191292    0.7419613620    0.5290180723
O381       O    0.2340878654    0.7518460998    0.5179729719
O382       O    0.2335518566    0.7213585643    0.4875503075
C383       C    0.3339161431    0.7697109519    0.4715722804
C384       C    0.2800902297    0.7421734805    0.4161491215
C385       C    0.2815292149    0.8236719225    0.4974710425
O386       O    0.2899060192    0.7867436054    0.5529063882
O387       O    0.2493447696    0.7682299551    0.5642956951
O388       O    0.2390866754    0.7291031385    0.5626930803
C389       C    0.2420488338    0.7490565390    0.5723915207
O390       O    0.2114051925    0.7821313355    0.4547882445
Zr391     Zr    0.2186150263    0.7561781597    0.4824654292
O392       O    0.2048841851    0.7116052307    0.5274697438
O393       O    0.2329873958    0.8013845965    0.5373274984
O394       O    0.1989147031    0.7834715821    0.5011734500
O395       O    0.1955915165    0.7411383833    0.4537434385
O396       O    0.1881589577    0.7369264690    0.5012934697
C397       C    0.1882236738    0.7215226627    0.5169684582
O398       O    0.2619101205    0.6907854436    0.5485216746
O399       O    0.2876753088    0.6872387714    0.4535485909
O400       O    0.2381754320    0.6773179798    0.5110161501
O401       O    0.2477076054    0.6755904914    0.4718551783
O402       O    0.3241921888    0.7076932064    0.4886812610
O403       O    0.3132045615    0.7062576061    0.5297794859
C404       C    0.2406106020    0.6675616921    0.4910696961
H405       H    0.3013282497    0.7356488737    0.4592277676
H406       H    0.2806786483    0.7400254323    0.5458330878
H407       H    0.2200006039    0.7097372669    0.4835638625
H408       H    0.2424035450    0.7963072751    0.4875807559
H409       H    0.3412815506    0.7440648148    0.5340094326
H410       H    0.2400109527    0.8119422172    0.5508387706
H411       H    0.1815887891    0.7811621921    0.4959180351
H412       H    0.3413496051    0.7103888500    0.4944264228
H413       H    0.2810002043    0.6774465166    0.4393099597
H414       H    0.2368288134    0.6901963850    0.4269716413
H415       H    0.1791126513    0.7476059661    0.4566343284
H416       H    0.3109600522    0.7119943656    0.5469604032
H417       H    0.2739738179    0.6818301615    0.5386923529
H418       H    0.2729960913    0.8084077100    0.4314529005
H419       H    0.1944729091    0.7878024406    0.4565070616
H420       H    0.3016923425    0.6963379630    0.4467735790
H421       H    0.2720380572    0.7005207426    0.5605762127
H422       H    0.3022138213    0.7969069658    0.5445627288
H423       H    0.3285888376    0.7689136328    0.5295088374
H424       H    0.1936221380    0.7234232851    0.4565995586
H425       H    0.2301002230    0.8127947451    0.5236934872
H426       H    0.2495421376    0.8096026001    0.4473914478
Zr427     Zr    0.5358250862    0.7201809577    0.2103147493
O428       O    0.5590440576    0.7368815717    0.1845837775
O429       O    0.5391395311    0.6796247013    0.2067291834
O430       O    0.5739202559    0.7141364476    0.2239819333
O431       O    0.4840012898    0.7220482913    0.1695513288
O432       O    0.5754530619    0.7249947252    0.2632520128
O433       O    0.5227989566    0.7124853664    0.1716005361
O434       O    0.5132344880    0.6632626079    0.2323841777
O435       O    0.5296326207    0.7095015347    0.2467830969
O436       O    0.4995358977    0.7085290592    0.2159456861
O437       O    0.5404883791    0.7491580835    0.2362630601
O438       O    0.5103923652    0.7481890570    0.2054267811
Zr439     Zr    0.4763901476    0.7527485251    0.2696710025
Zr440     Zr    0.5382646108    0.7375020113    0.2729411346
Zr441     Zr    0.4739470533    0.7354281621    0.2070444780
Zr442     Zr    0.4945061072    0.6940864601    0.2512354931
O443       O    0.4662178490    0.7637065242    0.1823116616
O444       O    0.5106136218    0.6735723812    0.2798959333
O445       O    0.4717225759    0.7237686410    0.2437214207
O446       O    0.5018192990    0.7247411165    0.2745588315
O447       O    0.5126757665    0.7644011143    0.2640399264
O448       O    0.4825790434    0.7634286388    0.2332025157
C449       C    0.5287669810    0.6630848643    0.2169280424
C450       C    0.5030507592    0.7147993871    0.1616538942
C451       C    0.5835043880    0.7173927219    0.2440844449
O452       O    0.5459021593    0.7101514916    0.2989117781
O453       O    0.5282103743    0.7508818822    0.3104342837
O454       O    0.4894127076    0.7604448070    0.3083850764
C455       C    0.5091573353    0.7581314770    0.3183315791
O456       O    0.5440458234    0.7856247970    0.2015108975
Zr457     Zr    0.5177055569    0.7788437133    0.2287501194
O458       O    0.4730721330    0.7933054722    0.2732564291
O459       O    0.5619316843    0.7669841938    0.2840933711
O460       O    0.5451835901    0.7996773914    0.2480271336
O461       O    0.5035034146    0.8007455333    0.2000472920
O462       O    0.4989771762    0.8096675656    0.2476014349
C463       C    0.4834446831    0.8098453091    0.2630575702
O464       O    0.4508187531    0.7364360921    0.2934594586
O465       O    0.4476841774    0.7074581446    0.1982050248
O466       O    0.4382914082    0.7587937259    0.2560036793
O467       O    0.4367586022    0.7479354482    0.2167335997
O468       O    0.4669244911    0.6723242502    0.2332618396
O469       O    0.4653134680    0.6846505628    0.2744387495
C470       C    0.4287072762    0.7555374516    0.2359011677
H471       H    0.4956278060    0.6947822214    0.2044266980
H472       H    0.4995630594    0.7183728388    0.2912768948
H473       H    0.4713241924    0.7766904817    0.2291861535
H474       H    0.5571676073    0.7558417541    0.2341939152
H475       H    0.5023727967    0.6572789358    0.2789232432
H476       H    0.5721719744    0.7605593815    0.2976812610
H477       H    0.5433169224    0.8168440937    0.2429087938
H478       H    0.4691752725    0.6553490492    0.2388768633
H479       H    0.4382073303    0.7135230950    0.1838972237
H480       H    0.4520342802    0.7576436431    0.1721685083
H481       H    0.5102921499    0.8174776080    0.2031880467
H482       H    0.4709110241    0.6875568704    0.2917182624
H483       H    0.4417167683    0.7238645691    0.2833897634
H484       H    0.5691402516    0.7235497943    0.1779488250
H485       H    0.5500618960    0.8027599477    0.2034730864
H486       H    0.4565225939    0.6933371833    0.1914222691
H487       H    0.4601847192    0.7268364701    0.3055492538
H488       H    0.5558563775    0.6977122720    0.2905921497
H489       H    0.5274946233    0.6702906631    0.2748939358
H490       H    0.4858413270    0.8025083441    0.2026745282
H491       H    0.5735208051    0.7696345596    0.2706494477
H492       H    0.5706883523    0.7476092794    0.1941288031
C493       C    0.3246168724    0.7637693444    0.2678009107
N494       N    0.3137810002    0.7525918172    0.2910775748
C495       C    0.2914600425    0.7642182803    0.3030283193
N496       N    0.2799749570    0.7870222706    0.2917023998
C497       C    0.2908108292    0.7981997978    0.2684257357
N498       N    0.3131317869    0.7865733347    0.2564749912
C499       C    0.1921661250    0.7251865791    0.7177124086
N500       N    0.2034122949    0.7025126359    0.7295378129
C501       C    0.2263097336    0.6910924597    0.7185320287
N502       N    0.2379610025    0.7023462267    0.6957008401
C503       C    0.2267148326    0.7250201699    0.6838754358
N504       N    0.2038173938    0.7364403461    0.6948812201
C505       C    0.4789359684    0.7842584007    0.4166983466
N506       N    0.4561140556    0.7726617775    0.4281378674
C507       C    0.4449230400    0.7846021298    0.4510829634
N508       N    0.4565539373    0.8081391054    0.4625885386
C509       C    0.4793758501    0.8197357286    0.4511490177
N510       N    0.4905668656    0.8077953762    0.4282039217
Zr511     Zr   -0.0087325282    0.7800578847    0.7710412776
O512       O    0.0087885828    0.8032760343    0.7979677206
O513       O   -0.0490527435    0.7840820874    0.7737975530
O514       O   -0.0143649088    0.8182518226    0.7585359535
O515       O   -0.0070001952    0.7283847529    0.8100843630
O516       O   -0.0042334286    0.8192907872    0.7195567652
O517       O   -0.0159154906    0.7674356800    0.8091435111
O518       O   -0.0662804751    0.7581651517    0.7468627943
O519       O   -0.0201578754    0.7737284885    0.7340981492
O520       O   -0.0210712041    0.7438114185    0.7638912341
O521       O    0.0197651158    0.7840445777    0.7459181770
O522       O    0.0188552176    0.7541281526    0.7757102344
Zr523     Zr    0.0216430860    0.7194314858    0.7103811604
Zr524     Zr    0.0074293604    0.7817097584    0.7088787342
Zr525     Zr    0.0054818280    0.7177760219    0.7725437366
Zr526     Zr   -0.0362077535    0.7387198771    0.7280793650
O527       O    0.0340045721    0.7097572587    0.7976789031
O528       O   -0.0569180542    0.7549807112    0.6994835171
O529       O   -0.0068573578    0.7154405578    0.7355053213
O530       O   -0.0059440292    0.7453576278    0.7057122364
O531       O    0.0339823926    0.7556743619    0.7175312368
O532       O    0.0330690639    0.7257572919    0.7473243217
C533       C   -0.0659097988    0.7738706617    0.7628537061
C534       C   -0.0137601762    0.7476730563    0.8184698363
C535       C   -0.0113248769    0.8276465705    0.7388308007
O536       O   -0.0201924699    0.7896112065    0.6825237408
O537       O    0.0199113837    0.7711010274    0.6713381078
O538       O    0.0288266791    0.7320501003    0.6722789598
C539       C    0.0266719954    0.7518091338    0.6629526673
O540       O    0.0568290832    0.7872907149    0.7816545160
Zr541     Zr    0.0491189420    0.7607659032    0.7533431059
O542       O    0.0619639320    0.7154036929    0.7076249178
O543       O    0.0370253386    0.8048665833    0.6992212973
O544       O    0.0700059235    0.7878218610    0.7354873050
O545       O    0.0712462065    0.7463933030    0.7820790770
O546       O    0.0791916636    0.7413206287    0.7345596765
C547       C    0.0788209873    0.7256151186    0.7185687647
O548       O    0.0045048712    0.6938634787    0.6853262420
O549       O   -0.0226928274    0.6919721401    0.7798336389
O550       O    0.0272760973    0.6812339577    0.7228865173
O551       O    0.0171446170    0.6801949931    0.7618657057
O552       O   -0.0580463928    0.7115648308    0.7446061441
O553       O   -0.0465394301    0.7094111585    0.7036456852
C554       C    0.0242360654    0.6718392098    0.7425916701
H555       H   -0.0346339050    0.7402130119    0.7749602347
H556       H   -0.0126402380    0.7430646597    0.6887622283
H557       H    0.0461765407    0.7142831783    0.7512646474
H558       H    0.0267511693    0.8006779802    0.7487162700
H559       H   -0.0732877397    0.7469936926    0.6997942773
H560       H    0.0305424236    0.8151324300    0.6858302731
H561       H    0.0871869073    0.7857072646    0.7409432120
H562       H   -0.0750390294    0.7140574478    0.7386710136
H563       H   -0.0165425650    0.6824837283    0.7939626682
H564       H    0.0279045559    0.6957154919    0.8071977635
H565       H    0.0879887655    0.7528992073    0.7795598161
H566       H   -0.0438641172    0.7148365516    0.6866195830
H567       H   -0.0080006238    0.6850250281    0.6947944908
H568       H   -0.0042123764    0.8136757200    0.8046412603
H569       H    0.0739821517    0.7930246238    0.7802971213
H570       H   -0.0364993841    0.7011246878    0.7865934842
H571       H   -0.0051312254    0.7033171759    0.6733299268
H572       H   -0.0322747983    0.7998674039    0.6908984921
H573       H   -0.0598120467    0.7720051691    0.7049904227
H574       H    0.0726559797    0.7286299114    0.7788856324
H575       H    0.0401122459    0.8165542510    0.7131297428
H576       H    0.0195082373    0.8146988781    0.7890686702
C577       C    0.0750736874    0.7235319941    0.5200088575
N578       N    0.0631763103    0.7001732324    0.5083967324
C579       C    0.0399808690    0.6890235399    0.5195294926
N580       N    0.0286828048    0.7012326091    0.5422743780
C581       C    0.0405801819    0.7245913709    0.5538865031
N582       N    0.0637756232    0.7357410633    0.5427537429
Zr583     Zr    0.7219959654    0.5199644680    0.2338311441
O584       O    0.6950410735    0.5406959153    0.2516252836
O585       O    0.7187651379    0.5258101658    0.1932848553
O586       O    0.7335108261    0.5591451663    0.2305073912
O587       O    0.6844601077    0.4659311149    0.2315620737
O588       O    0.7721710606    0.5620013564    0.2422351095
O589       O    0.6844777522    0.5054422705    0.2245370910
O590       O    0.7457880418    0.5023684093    0.1756536425
O591       O    0.7585723699    0.5164013567    0.2233905294
O592       O    0.7297062163    0.4847848565    0.2198752136
O593       O    0.7470717084    0.5240356918    0.2636960865
O594       O    0.7182065938    0.4924197279    0.2601842989
Zr595     Zr    0.7836198829    0.4615020179    0.2637373954
Zr596     Zr    0.7836500064    0.5245141629    0.2525384416
Zr597     Zr    0.7219658915    0.4569487030    0.2450305553
Zr598     Zr    0.7650985013    0.4825742812    0.2057124024
O599       O    0.6975546612    0.4460354487    0.2724406409
O600       O    0.7928424914    0.5015425032    0.1867134535
O601       O    0.7585431505    0.4574266378    0.2338693822
O602       O    0.7874093040    0.4890431380    0.2373846980
O603       O    0.7759096815    0.4966780093    0.2776937833
O604       O    0.7470435280    0.4650615092    0.2741784675
C605       C    0.7296358090    0.5170904140    0.1762011125
C606       C    0.6756855137    0.4850366929    0.2253845320
C607       C    0.7528466682    0.5695532026    0.2347752302
O608       O    0.8092802907    0.5353383045    0.2260764818
O609       O    0.8211557902    0.5155317510    0.2660069232
O610       O    0.8211381456    0.4760205954    0.2730319060
C611       C    0.8299304337    0.4964225530    0.2721849224
O612       O    0.7120205061    0.5233253173    0.2998727084
Zr613     Zr    0.7405173966    0.4988885846    0.2918565945
O614       O    0.7868507600    0.4556527001    0.3042841417
O615       O    0.7930280567    0.5467641997    0.2838749080
O616       O    0.7578368641    0.5259513680    0.3149150203
O617       O    0.7126097354    0.4817286448    0.3123716493
O618       O    0.7598278560    0.4790944566    0.3219153545
C619       C    0.7759800889    0.4643724519    0.3213678844
O620       O    0.8087759387    0.4382926681    0.2461430006
O621       O    0.7150013433    0.4321246913    0.2150851192
O622       O    0.7721050718    0.4223176996    0.2670616057
O623       O    0.7334448373    0.4194615095    0.2553338875
O624       O    0.7490865489    0.4555384792    0.1817397833
O625       O    0.7897890018    0.4552549022    0.1947709084
C626       C    0.7527692296    0.4119096632    0.2627937667
H627       H    0.7186863559    0.4812005547    0.2056112372
H628       H    0.8041631191    0.4880905565    0.2311588574
H629       H    0.7435211030    0.4527169015    0.2866763792
H630       H    0.7440252905    0.5401429341    0.2714529798
H631       H    0.7925329891    0.4943518150    0.1698078615
H632       H    0.8059977977    0.5581368432    0.2783497435
H633       H    0.7526599977    0.5226666827    0.3319235326
H634       H    0.7547317005    0.4592200477    0.1649577642
H635       H    0.7012814167    0.4215012988    0.2202856001
H636       H    0.6883659385    0.4317413231    0.2652419417
H637       H    0.7151399553    0.4875525046    0.3296630038
H638       H    0.8065531046    0.4615558722    0.1983747166
H639       H    0.7994614456    0.4295161276    0.2327463498
H640       H    0.6880828556    0.5513306435    0.2387830147
H641       H    0.7134213395    0.5282885404    0.3174961185
H642       H    0.7079755701    0.4415480253    0.2013660899
H643       H    0.8203497178    0.4489265137    0.2373471019
H644       H    0.8006509658    0.5456831916    0.2140891708
H645       H    0.7870044703    0.5183667593    0.1844291677
H646       H    0.7161583027    0.4641017717    0.3130365462
H647       H    0.7790494549    0.5574618592    0.2870403107
H648       H    0.7037193778    0.5521087478    0.2633279522
Zr649     Zr    0.7451758898    0.2142595074    0.5211158037
O650       O    0.7623387677    0.1885451649    0.5441218801
O651       O    0.7048028316    0.2103191528    0.5248426556
O652       O    0.7395398460    0.2272658122    0.5597906591
O653       O    0.7466802813    0.1745052142    0.4683368052
O654       O    0.7500779688    0.2663170650    0.5616377453
O655       O    0.7376365497    0.1759402561    0.5076356902
O656       O    0.6879428965    0.2359968678    0.4991198259
O657       O    0.7341562209    0.2504542705    0.5153539992
O658       O    0.7330352503    0.2202384545    0.4846487389
O659       O    0.7739295094    0.2401953437    0.5257982848
O660       O    0.7728119788    0.2099806703    0.4950937170
Zr661     Zr    0.7764048290    0.2742463380    0.4613826517
Zr662     Zr    0.7619862955    0.2765370215    0.5240564332
Zr663     Zr    0.7595950664    0.2119687392    0.4584384090
Zr664     Zr    0.7182873127    0.2552165144    0.4800874303
O665       O    0.7878898832    0.1877559144    0.4500834047
O666       O    0.6978143573    0.2832803464    0.4968643025
O667       O    0.7476484126    0.2483092744    0.4566958649
O668       O    0.7487693831    0.2785250905    0.4874011252
O669       O    0.7885461116    0.2682673062    0.4978461032
O670       O    0.7874251410    0.2380514902    0.4671408430
C671       C    0.6880916626    0.2204447193    0.5146450815
C672       C    0.7397636986    0.1663504246    0.4875654742
C673       C    0.7427540271    0.2471193179    0.5696458581
O674       O    0.7346057848    0.3019875128    0.5323222862
O675       O    0.7749010806    0.3140005465    0.5141580370
O676       O    0.7839448122    0.3125655047    0.4748591519
C677       C    0.7818183064    0.3221552514    0.4949257548
O678       O    0.8106175172    0.2059535617    0.5286517591
Zr679     Zr    0.8032940492    0.2332892463    0.5024074119
O680       O    0.8167785303    0.2781866079    0.4576521865
O681       O    0.7916099416    0.2875350914    0.5477694597
O682       O    0.8242787164    0.2522295598    0.5301428806
O683       O    0.8251762743    0.2051693369    0.4875399167
O684       O    0.8336384654    0.2525088929    0.4833750163
C685       C    0.8334896993    0.2680610414    0.4678497607
O686       O    0.7596135526    0.2980671679    0.4359767063
O687       O    0.7314270849    0.2033137920    0.4321127060
O688       O    0.7820415160    0.2612399486    0.4227041831
O689       O    0.7715033931    0.2221886957    0.4208570969
O690       O    0.6963649999    0.2375636663    0.4522705550
O691       O    0.7083107962    0.2785620453    0.4509477570
C692       C    0.7788273348    0.2413864428    0.4128489841
H693       H    0.7193659375    0.2087422908    0.4807231525
H694       H    0.7422568156    0.2950977056    0.4853631917
H695       H    0.8005346265    0.2343255030    0.4555968584
H696       H    0.7808300656    0.2379734625    0.5425510308
H697       H    0.6814651960    0.2822899115    0.4886999643
H698       H    0.7852297308    0.3008326579    0.5583187170
H699       H    0.8414142512    0.2473163504    0.5280276459
H700       H    0.6794215547    0.2429663559    0.4547769060
H701       H    0.7374641316    0.1892883877    0.4223305655
H702       H    0.7817377085    0.1778269228    0.4357166623
H703       H    0.8419266650    0.2083350049    0.4942560662
H704       H    0.7111459739    0.2956637846    0.4567512530
H705       H    0.7470367112    0.2880889849    0.4268092447
H706       H    0.7492285405    0.1817130138    0.5543850749
H707       H    0.8277690549    0.2079630176    0.5345711696
H708       H    0.7175145034    0.1963452195    0.4411123342
H709       H    0.7500676192    0.3098629960    0.4456600390
H710       H    0.7223971199    0.2934923725    0.5424152948
H711       H    0.6948027209    0.2780617125    0.5138926637
H712       H    0.8266816978    0.2080285047    0.4697135708
H713       H    0.7945113955    0.2740566793    0.5593045356
H714       H    0.7731143668    0.1979531678    0.5558701250
C715       C    0.7745556845    0.2999074324    0.2633923342
N716       N    0.7635581186    0.2880053480    0.2862226317
C717       C    0.7755256811    0.2654113484    0.2974702677
N718       N    0.7984908094    0.2547194333    0.2858876062
C719       C    0.8094883752    0.2666215177    0.2630573087
N720       N    0.7975208127    0.2892155173    0.2518096727
C721       C    0.7272027235    0.6732493301    0.2269077698
N722       N    0.7388051753    0.6852767535    0.2044530484
C723       C    0.7272453396    0.7080452001    0.1931288282
N724       N    0.7040830522    0.7187862232    0.2042593294
C725       C    0.6924806004    0.7067587998    0.2267140509
N726       N    0.7040404360    0.6839903532    0.2380382710
C727       C    0.8300778305    0.4523968760    0.4686472967
N728       N    0.8179531359    0.4634410027    0.4456522113
C729       C    0.7949997704    0.4510602553    0.4337546694
N730       N    0.7841710993    0.4276353812    0.4448522128
C731       C    0.7962957939    0.4165912545    0.4678472981
N732       N    0.8192491595    0.4289720020    0.4797448401
Zr733     Zr    0.4864991234    0.4614027208    0.9602662778
O734       O    0.5030074160    0.4386440031    0.9336465369
O735       O    0.4460156469    0.4568443418    0.9562871707
O736       O    0.4800795768    0.4230148659    0.9722637312
O737       O    0.4889461586    0.5134418841    0.9217363737
O738       O    0.4908013636    0.4217895861    1.0115329119
O739       O    0.4790385065    0.4742481372    0.9220647164
O740       O    0.4298703357    0.4823066527    0.9829480606
O741       O    0.4758125870    0.4672678410    0.9969309663
O742       O    0.4751992423    0.4974304717    0.9673783902
O743       O    0.5153009942    0.4575978286    0.9861930760
O744       O    0.5146910810    0.4877598529    0.9566416226
Zr745     Zr    0.5193988416    0.5219597807    1.0223657430
Zr746     Zr    0.5036025418    0.4594537833    1.0228914701
Zr747     Zr    0.5022961459    0.5239123184    0.9597405687
Zr748     Zr    0.4607503879    0.5020156352    1.0027914627
O749       O    0.5306414411    0.5325368662    0.9355160317
O750       O    0.4400633492    0.4852252862    1.0306328078
O751       O    0.4905942620    0.5257688795    0.9964378401
O752       O    0.4912076067    0.4956062488    1.0259904162
O753       O    0.5306994454    0.4859356300    1.0152536486
O754       O    0.5300861007    0.5160982607    0.9857010724
C755       C    0.4295861578    0.4667350311    0.9668267726
C756       C    0.4815559126    0.4941244941    0.9129787559
C757       C    0.4831892523    0.4134944937    0.9919746876
O758       O    0.4761807229    0.4509488170    1.0483634361
O759       O    0.5169525291    0.4699242177    1.0608956651
O760       O    0.5268601812    0.5091179646    1.0605673223
C761       C    0.5243434978    0.4892452079    1.0696533008
O762       O    0.5517348569    0.4551603593    0.9515174310
Zr763     Zr    0.5451482998    0.4813504666    0.9798405761
O764       O    0.5598830408    0.5265217599    1.0263448681
O765       O    0.5327674179    0.4366172253    1.0332125939
O766       O    0.5656293153    0.4544249856    0.9980690240
O767       O    0.5672021573    0.4962727092    0.9518838757
O768       O    0.5760283519    0.5010594491    0.9996839782
C769       C    0.5763125299    0.5166310706    1.0158052662
O770       O    0.5033045615    0.5470899971    1.0471462443
O771       O    0.4746584204    0.5493965646    0.9518526139
O772       O    0.5258191109    0.5603512358    1.0103683076
O773       O    0.5150973241    0.5615765157    0.9710991269
O774       O    0.4393407669    0.5290160081    0.9858649551
O775       O    0.4515517920    0.5309867600    1.0271845724
C776       C    0.5227094354    0.5698716080    0.9906573512
H777       H    0.4615494213    0.5009354618    0.9559421691
H778       H    0.4848340766    0.4976659622    1.0427643975
H779       H    0.5434318460    0.5277895685    0.9822492829
H780       H    0.5218184846    0.4410790123    0.9834513664
H781       H    0.4238873166    0.4929916429    1.0299118759
H782       H    0.5262285866    0.4261469347    1.0463211575
H783       H    0.5827858941    0.4568227260    0.9931375752
H784       H    0.4223704329    0.5262387235    0.9912777950
H785       H    0.4808328816    0.5590907606    0.9379892627
H786       H    0.5247500984    0.5465783819    0.9259432708
H787       H    0.5838240001    0.4899746109    0.9548376266
H788       H    0.4543564786    0.5254543212    1.0442412578
H789       H    0.4908722016    0.5558378473    1.0373889206
H790       H    0.4896289638    0.4281176086    0.9264969228
H791       H    0.5687689478    0.4496498627    0.9533282860
H792       H    0.4605047317    0.5401073052    0.9446041645
H793       H    0.4936101985    0.5374002811    1.0587745389
H794       H    0.4636982174    0.4405928364    1.0395408842
H795       H    0.4366441081    0.4682016940    1.0248879202
H796       H    0.5691191860    0.5140343276    0.9552781789
H797       H    0.5353365724    0.4250847367    1.0192898001
H798       H    0.5135778430    0.4272910952    0.9427589134
C799       C    0.5592492843    0.7194942350    0.0137090280
N800       N    0.5478308764    0.7305448583    0.0369718011
C801       C    0.5251284133    0.7182618308    0.0479645198
N802       N    0.5138443581    0.6949281799    0.0356944653
C803       C    0.5252627660    0.6838775567    0.0124316921
N804       N    0.5479652291    0.6961605842    0.0014389735
Zr805     Zr    0.2788868429    0.2805077933    0.9808943366
O806       O    0.3022290962    0.3065273340    0.9994150097
O807       O    0.2829315716    0.2845286177    0.9403092611
O808       O    0.3168907388    0.2680302262    0.9749285300
O809       O    0.2276299846    0.3195485608    0.9836780986
O810       O    0.3176465648    0.2289901920    0.9840025143
O811       O    0.2665718200    0.3186550926    0.9747432657
O812       O    0.2568976435    0.2585084870    0.9220783138
O813       O    0.2723148793    0.2442365912    0.9682653319
O814       O    0.2426905324    0.2740398895    0.9681557700
O815       O    0.2826757368    0.2546108179    1.0089111996
O816       O    0.2530520247    0.2844129804    1.0088050695
Zr817     Zr    0.2179829117    0.2196750850    1.0096147029
Zr818     Zr    0.2800871900    0.2182480985    0.9953697998
Zr819     Zr    0.2167789841    0.2819348147    0.9951398690
Zr820     Zr    0.2373622259    0.2390046246    0.9518189789
O821       O    0.2089523576    0.3060174051    1.0246368960
O822       O    0.2533818631    0.2111794851    0.9301194748
O823       O    0.2141898024    0.2455732311    0.9815950373
O824       O    0.2438141493    0.2157699329    0.9817045993
O825       O    0.2541756417    0.2261430238    1.0223538988
O826       O    0.2245512948    0.2559463221    1.0222443369
C827       C    0.2726746212    0.2742745310    0.9229584987
C828       C    0.2469280732    0.3279715735    0.9771486004
C829       C    0.3261191112    0.2483054153    0.9774353271
O830       O    0.2877878736    0.1929257678    0.9667454015
O831       O    0.2692361895    0.1806343524    1.0068315702
O832       O    0.2302943541    0.1815278206    1.0157664031
C833       C    0.2499345205    0.1722113748    1.0133616977
O834       O    0.2861566838    0.2888706277    1.0473621688
Zr835     Zr    0.2595039482    0.2611782886    1.0386906899
O836       O    0.2139346024    0.2156542956    1.0502004077
O837       O    0.3031044192    0.2075499121    1.0249931221
O838       O    0.2863540167    0.2425975758    1.0592953157
O839       O    0.2453680532    0.2890845081    1.0618279578
O840       O    0.2399685306    0.2416744263    1.0684313550
C841       C    0.2241915529    0.2259083822    1.0675511701
O842       O    0.1923103260    0.1955164084    0.9915302488
O843       O    0.1911045525    0.2902528617    0.9668747186
O844       O    0.1799754353    0.2321526871    1.0155811388
O845       O    0.1792196093    0.2711927212    1.0065071545
O846       O    0.2104041541    0.2562972288    0.9302149189
O847       O    0.2079614267    0.2152655607    0.9406110061
C848       C    0.1707470629    0.2518774980    1.0130743417
H849       H    0.2391845191    0.2854942932    0.9547919408
H850       H    0.2414086683    0.1991715504    0.9744446885
H851       H    0.2131322581    0.2595062355    1.0355579096
H852       H    0.2992823003    0.2570562849    1.0160781803
H853       H    0.2454232918    0.2120706432    0.9135970722
H854       H    0.3132492537    0.1943984681    1.0180811771
H855       H    0.2842789345    0.2474704369    1.0767837209
H856       H    0.2128527754    0.2509399970    0.9129032323
H857       H    0.1817404115    0.3041429579    0.9734745625
H858       H    0.1950178588    0.3157567495    1.0187325839
H859       H    0.2518336669    0.2859977481    1.0786581274
H860       H    0.2132502879    0.1982380481    0.9428200321
H861       H    0.1835666574    0.2053803975    0.9791741144
H862       H    0.3126520969    0.3135098316    0.9865193793
H863       H    0.2918605267    0.2869291268    1.0646389979
H864       H    0.2002846167    0.2973551691    0.9531661721
H865       H    0.2016560375    0.1838574313    0.9814766662
H866       H    0.2980796114    0.2015685578    0.9548263202
H867       H    0.2704005824    0.2166330824    0.9274001276
H868       H    0.2276292825    0.2859809757    1.0631165712
H869       H    0.3148587464    0.2211855498    1.0285431492
H870       H    0.3135547800    0.2972700678    1.0099920947
C871       C    0.2750530315    0.4363104954    0.9577196001
N872       N    0.2636444671    0.4480773369    0.9347450680
C873       C    0.2760281089    0.4706416702    0.9234783482
N874       N    0.2998203151    0.4814391620    0.9351861605
C875       C    0.3112288795    0.4696723205    0.9581606927
N876       N    0.2988452377    0.4471079872    0.9694274125
C877       C    0.4344686541    0.2603698399    0.9745312944
N878       N    0.4458384508    0.2484006452    0.9516984315
C879       C    0.4690219723    0.2597232962    0.9407052169
N880       N    0.4808356970    0.2830151419    0.9525448650
C881       C    0.4694659003    0.2949843367    0.9753777279
N882       N    0.4462823788    0.2836616857    0.9863709426
Zr883     Zr    0.5380002705    1.0156124529    0.5286409218
O884       O    0.5619667632    0.9984813483    0.5538186454
O885       O    0.5423885290    1.0561229451    0.5335575866
O886       O    0.5756451035    1.0227470068    0.5152285491
O887       O    0.4878980581    1.0115554718    0.5692408684
O888       O    0.5752230173    1.0131669320    0.4756487680
O889       O    0.5268309018    1.0218501437    0.5675493773
O890       O    0.5157310527    1.0728670717    0.5084417746
O891       O    0.5304602510    1.0273548995    0.4925586195
O892       O    0.5017217480    1.0268273573    0.5233603869
O893       O    0.5408796371    0.9875357906    0.5017759659
O894       O    0.5121417160    0.9870048467    0.5325764904
Zr895     Zr    0.4752322487    0.9839161740    0.4682202667
Zr896     Zr    0.5373221023    1.0003297413    0.4655204771
Zr897     Zr    0.4759068370    0.9991981292    0.5313408240
Zr898     Zr    0.4954810470    1.0423163179    0.4885800744
O899       O    0.4686133996    0.9699885453    0.5551083920
O900       O    0.5108080045    1.0640280875    0.4606433879
O901       O    0.4723487202    1.0119954817    0.4950865782
O902       O    0.5010872232    1.0125230239    0.4642848107
O903       O    0.5115071913    0.9727005132    0.4735009142
O904       O    0.4827686882    0.9721729710    0.5043026816
C905       C    0.5319437477    1.0728163977    0.5239025097
C906       C    0.5074592718    1.0188798269    0.5773875387
C907       C    0.5842824237    1.0202961969    0.4950524706
O908       O    0.5444489940    1.0286492039    0.4404859428
O909       O    0.5253308812    0.9879723987    0.4276204327
O910       O    0.4863980375    0.9776777269    0.4293119238
C911       C    0.5057660875    0.9806472873    0.4194738750
O912       O    0.5451262907    0.9500081145    0.5352945060
Zr913     Zr    0.5177478923    0.9572115526    0.5082812267
O914       O    0.4708404102    0.9434049254    0.4633037145
O915       O    0.5598420064    0.9715998515    0.4534382345
O916       O    0.5439213802    0.9374576303    0.4883716007
O917       O    0.5042971755    0.9341428491    0.5362167151
O918       O    0.4974978866    0.9266607988    0.4884195265
C919       C    0.4812851916    0.9267114728    0.4729587915
O920       O    0.4489886318    1.0005566669    0.4449675692
O921       O    0.4506557011    1.0264449435    0.5410605258
O922       O    0.4375838358    0.9767808638    0.4816327520
O923       O    0.4380059219    0.9863609385    0.5212125331
O924       O    0.4691682048    1.0630389412    0.5072182187
O925       O    0.4654854166    1.0519975878    0.4656822474
C926       C    0.4289465155    0.9792316736    0.5018088305
H927       H    0.4986251630    1.0401433001    0.5353133373
H928       H    0.4982466471    1.0193890226    0.4477926939
H929       H    0.4713864667    0.9585863263    0.5078669626
H930       H    0.5575013373    0.9810691602    0.5036410431
H931       H    0.5029762012    1.0801544289    0.4621411819
H932       H    0.5696381472    0.9786360164    0.4400878635
H933       H    0.5418890028    0.9200902514    0.4929183783
H934       H    0.4715588226    1.0802372053    0.5021694503
H935       H    0.4416626435    1.0197587906    0.5551426093
H936       H    0.4550055339    0.9754865095    0.5654238312
H937       H    0.5105722747    0.9176222200    0.5325374017
H938       H    0.4702661395    1.0497384499    0.4483331604
H939       H    0.4406073877    1.0126544614    0.4554287670
H940       H    0.5726553911    1.0117776718    0.5608944797
H941       H    0.5506707618    0.9330334047    0.5327783430
H942       H    0.4601105656    1.0405044577    0.5483085660
H943       H    0.4580472722    1.0107057590    0.4332168837
H944       H    0.5550487803    1.0409964241    0.4492150546
H945       H    0.5279845339    1.0674395401    0.4657653775
H946       H    0.4864771293    0.9321614962    0.5335157950
H947       H    0.5719589475    0.9687171140    0.4667920080
H948       H    0.5729553852    0.9882546208    0.5439447661
Zr949     Zr    0.2834363799    0.9757665930    0.2776975505
O950       O    0.3095215982    0.9931022109    0.3019308356
O951       O    0.2870786905    0.9352898391    0.2804457780
O952       O    0.2708923106    0.9685735317    0.3157932717
O953       O    0.3224593880    0.9800618604    0.2262088728
O954       O    0.2320386320    0.9778741020    0.3167395583
O955       O    0.3214402086    0.9697925656    0.2651868496
O956       O    0.2609988123    0.9183390118    0.2535072834
O957       O    0.2471592163    0.9637594609    0.2705430565
O958       O    0.2769171996    0.9644766669    0.2407494275
O959       O    0.2578554516    1.0036595974    0.2823690752
O960       O    0.2876123320    1.0043801974    0.2525761968
Zr961     Zr    0.2231013514    1.0069766673    0.2170396925
Zr962     Zr    0.2214739257    0.9906035561    0.2792017463
Zr963     Zr    0.2850638506    0.9921404579    0.2155319065
Zr964     Zr    0.2418379444    0.9487330323    0.2347302420
O965       O    0.3093541229    1.0215150829    0.2086860733
O966       O    0.2138747962    0.9268356934    0.2500863832
O967       O    0.2486834276    0.9790810226    0.2123638270
O968       O    0.2189254443    0.9783638166    0.2421574560
O969       O    0.2296205767    1.0182673471    0.2539842253
O970       O    0.2593785600    1.0189845531    0.2241905963
C971       C    0.2767102384    0.9185153483    0.2694959066
C972       C    0.3307772026    0.9728136953    0.2454817338
C973       C    0.2512321154    0.9708903445    0.3251250985
O974       O    0.1959552382    0.9621100317    0.2859457410
O975       O    0.1840783883    1.0026821536    0.2685247800
O976       O    0.1850975677    1.0129514484    0.2295468031
C977       C    0.1757606186    1.0099310724    0.2492483286
O978       O    0.2923612039    1.0414339939    0.2872546260
Zr979     Zr    0.2646998319    1.0340109817    0.2600034107
O980       O    0.2194590858    1.0474541749    0.2142878748
O981       O    0.2110409166    1.0192741402    0.3033652461
O982       O    0.2463204241    1.0536525775    0.2877106940
O983       O    0.2927543455    1.0572672961    0.2465950202
O984       O    0.2455389640    1.0644050022    0.2412263694
C985       C    0.2298275379    1.0642286657    0.2252377462
O986       O    0.1988787223    0.9901430975    0.1904760404
O987       O    0.2931386271    0.9649336952    0.1887262359
O988       O    0.2356454657    1.0141704823    0.1789403810
O989       O    0.2744991443    1.0048699120    0.1779940945
O990       O    0.2589239545    0.9281134594    0.2068771108
O991       O    0.2180998415    0.9388584028    0.2046351893
C992       C    0.2553056609    1.0118536696    0.1696085543
H993       H    0.2882254038    0.9512405208    0.2368051366
H994       H    0.2023103598    0.9713772392    0.2394415649
H995       H    0.2630618895    1.0325869492    0.2131247121
H996       H    0.2603376793    1.0101568528    0.2993627832
H997       H    0.2146258084    0.9107099953    0.2415152664
H998       H    0.1978509248    1.0121522053    0.3133292693
H999       H    0.2513388273    1.0710524819    0.2862111164
H1000      H    0.2534236139    0.9108794931    0.2087578416
H1001      H    0.3070615045    0.9717115535    0.1795414843
H1002      H    0.3190315133    1.0160759079    0.1944654879
H1003      H    0.2898183080    1.0737703324    0.2536639972
H1004      H    0.2011318336    0.9409997055    0.2099918472
H1005      H    0.2086163413    0.9781094372    0.1812777133
H1006      H    0.3163569618    0.9798648572    0.3120373795
H1007      H    0.2905722444    1.0583986845    0.2935734846
H1008      H    0.3000877551    0.9509330401    0.1975526186
H1009      H    0.1871500629    0.9799184139    0.1995345464
H1010      H    0.2044552629    0.9498335322    0.2959571631
H1011      H    0.2192681411    0.9234771585    0.2671775483
H1012      H    0.2896927832    1.0592120486    0.2287372698
H1013      H    0.2246565757    1.0222639203    0.3153786772
H1014      H    0.3003699543    1.0032713075    0.3136762856
C1015      C    0.2794237679    0.9654984134    0.4487207848
N1016      N    0.2683683651    0.9422668625    0.4599944453
C1017      C    0.2804151665    0.9312401072    0.4830408787
N1018      N    0.3035173706    0.9434449027    0.4948136516
C1019      C    0.3145727733    0.9666764536    0.4835399910
N1020      N    0.3025259719    0.9777032089    0.4604935576
C1021      C    0.4769088578    0.9258977554    0.2714587982
N1022      N    0.4888948668    0.9379159884    0.2947220701
C1023      C    0.4776949167    0.9608522527    0.3064567545
N1024      N    0.4545089577    0.9717702840    0.2949281669
C1025      C    0.4425229487    0.9597520510    0.2716648950
N1026      N    0.4537228988    0.9368157868    0.2599302106
Zr1027    Zr    0.0333207198    1.0109885046    1.0222721626
O1028      O    0.0566096522    0.9942550633    1.0483692740
O1029      O    0.0375244848    1.0515581771    1.0267189283
O1030      O    0.0713423209    1.0180044420    1.0098522644
O1031      O   -0.0179257781    1.0074004479    1.0614519727
O1032      O    0.0720386935    1.0078824567    0.9704346906
O1033      O    0.0210525476    1.0177389806    1.0607337220
O1034      O    0.0115425782    1.0679007185    1.0006117631
O1035      O    0.0267740893    1.0222154349    0.9858321948
O1036      O   -0.0028330976    1.0220596026    1.0157865523
O1037      O    0.0369857218    0.9825586464    0.9959239023
O1038      O    0.0073791559    0.9823993977    1.0258770845
Zr1039    Zr   -0.0277362204    0.9783580782    0.9605579318
Zr1040    Zr    0.0344262347    0.9948415659    0.9594103246
Zr1041    Zr   -0.0288453184    0.9945042558    1.0234197901
Zr1042    Zr   -0.0081209351    1.0370518259    0.9806301362
O1043      O   -0.0367708658    0.9656205560    1.0473834431
O1044      O    0.0079658107    1.0583980912    0.9528421424
O1045      O   -0.0314054264    1.0067905917    0.9869073878
O1046      O   -0.0017982395    1.0069464240    0.9569530303
O1047      O    0.0084140139    0.9672862190    0.9670435625
O1048      O   -0.0211931730    0.9671303868    0.9969979200
C1049      C    0.0273271695    1.0680926946    1.0165271560
C1050      C    0.0014040651    1.0148698517    1.0700483717
C1051      C    0.0805492571    1.0152926212    0.9899784887
O1052      O    0.0422216912    1.0228177557    0.9341890146
O1053      O    0.0235066945    0.9819453738    0.9213781420
O1054      O   -0.0154716313    0.9716068411    0.9220963928
C1055      C    0.0041732682    0.9744752089    0.9127817634
O1056      O    0.0403404589    0.9455156917    1.0300842930
Zr1057    Zr    0.0137018514    0.9522939958    1.0021999786
O1058      O   -0.0319435685    0.9377876446    0.9561111865
O1059      O    0.0573242684    0.9659983231    0.9484076393
O1060      O    0.0404627409    0.9323219545    0.9833508193
O1061      O   -0.0005065070    0.9295947744    1.0300606919
O1062      O   -0.0059616618    0.9214451032    0.9822183517
C1063      C   -0.0217462532    0.9212531271    0.9663029588
O1064      O   -0.0533561520    0.9946234440    0.9363257087
O1065      O   -0.0544074623    1.0218274887    1.0320049341
O1066      O   -0.0657614046    0.9713413797    0.9729778504
O1067      O   -0.0664577772    0.9814633650    1.0123954241
O1068      O   -0.0349867989    1.0579744068    0.9981907411
O1069      O   -0.0374955412    1.0463588248    0.9567460434
C1070      C   -0.0749683408    0.9740532005    0.9928516261
H1071      H   -0.0062806967    1.0355290270    1.0274452371
H1072      H   -0.0041863870    1.0135772932    0.9402929873
H1073      H   -0.0326619980    0.9535775196    1.0004296039
H1074      H    0.0535673699    0.9761508137    0.9983610044
H1075      H    0.0000708586    1.0745241060    0.9538771718
H1076      H    0.0674881238    0.9728657177    0.9352483840
H1077      H    0.0383232643    0.9150205685    0.9880889195
H1078      H   -0.0324747428    1.0751004909    0.9929638840
H1079      H   -0.0637889046    1.0153215114    1.0459133000
H1080      H   -0.0506774570    0.9712333819    1.0572173205
H1081      H    0.0058928187    0.9130417377    1.0268069271
H1082      H   -0.0322255411    1.0438704590    0.9395828374
H1083      H   -0.0620466443    1.0068449884    0.9463594094
H1084      H    0.0670874007    1.0076629823    1.0555527227
H1085      H    0.0459769633    0.9285234386    1.0279782459
H1086      H   -0.0451695305    1.0359983960    1.0393137206
H1087      H   -0.0439784412    1.0046231700    0.9246979918
H1088      H    0.0525654538    1.0352995642    0.9430356180
H1089      H    0.0249995929    1.0619101689    0.9584049398
H1090      H   -0.0182534029    0.9275443725    1.0268774105
H1091      H    0.0690743163    0.9633228713    0.9621412333
H1092      H    0.0678895663    0.9839166880    1.0389701915
C1093      C    0.0298523213    0.0634151287    0.2198862280
N1094      N    0.0525322234    0.0519455853    0.2318665651
C1095      C    0.0635751058    0.0288960765    0.2201967517
N1096      N    0.0519380861    0.0173161111    0.1965466011
C1097      C    0.0292581840    0.0287856544    0.1845662640
N1098      N    0.0182153016    0.0518351632    0.1962360774
C1099      C    0.0274236908    0.2245451941    0.0639553623
N1100      N    0.0502060923    0.2363796064    0.0526688160
C1101      C    0.0615783403    0.2246492979    0.0297126807
N1102      N    0.0501681868    0.2010845769    0.0180430916
C1103      C    0.0273857853    0.1892501646    0.0293296378
N1104      N    0.0160135373    0.2009804732    0.0522857732
C1105      C    0.2378064283    0.0272285975    0.0516307298
N1106      N    0.2491219905    0.0505434194    0.0407715542
C1107      C    0.2372873670    0.0620252992    0.0178554146
N1108      N    0.2141371814    0.0501923572    0.0057984507
C1109      C    0.2028216192    0.0268775353    0.0166576263
N1110      N    0.2146562426    0.0153956554    0.0395737658
C1111      C    0.2094065187    0.1742588525    0.2189806371
N1112      N    0.1869250260    0.1858134359    0.2306900228
C1113      C    0.1756954140    0.2087857276    0.2194458222
N1114      N    0.1869472947    0.2202034357    0.1964922357
C1115      C    0.2094287875    0.2086488522    0.1847828500
N1116      N    0.2206583995    0.1856765606    0.1960270507
Zr1117    Zr    0.7872926210   -0.0093941193    0.7731742970
O1118      O    0.8137155132    0.0092974606    0.7959811563
O1119      O    0.7914354343   -0.0496102867    0.7778245596
O1120      O    0.7756873795   -0.0148192169    0.8119007939
O1121      O    0.8250924866   -0.0072917445    0.7206101516
O1122      O    0.7367771160   -0.0058181165    0.8132519939
O1123      O    0.8250584134   -0.0156468550    0.7601143676
O1124      O    0.7649531265   -0.0680496901    0.7522934792
O1125      O    0.7510082176   -0.0220230142    0.7674112252
O1126      O    0.7800733491   -0.0225107586    0.7369229396
O1127      O    0.7615277789    0.0184470113    0.7770461521
O1128      O    0.7905917880    0.0179626801    0.7465584752
Zr1129    Zr    0.7252961908    0.0182854083    0.7123228702
Zr1130    Zr    0.7252397656    0.0049650097    0.7753240017
Zr1131    Zr    0.7873490026    0.0039268567    0.7101695373
Zr1132    Zr    0.7450522688   -0.0388019947    0.7324516896
O1133      O    0.8111510848    0.0331002892    0.7013468088
O1134      O    0.7176885501   -0.0601320797    0.7494999528
O1135      O    0.7510621117   -0.0095585581    0.7084467781
O1136      O    0.7219969802   -0.0090708136    0.7389350637
O1137      O    0.7325154191    0.0314026251    0.7485705993
O1138      O    0.7615805505    0.0309148807    0.7180823137
C1139      C    0.7810110019   -0.0669643658    0.7679257836
C1140      C    0.8339156898   -0.0135148332    0.7400541602
C1141      C    0.7562227769   -0.0122171101    0.8215546929
O1142      O    0.7001981308   -0.0233446055    0.7840289363
O1143      O    0.6874962815    0.0161836110    0.7648833873
O1144      O    0.6875303548    0.0245387215    0.7253791713
C1145      C    0.6786730347    0.0224072771    0.7454357504
O1146      O    0.7957101932    0.0566565416    0.7793173276
Zr1147    Zr    0.7675364993    0.0476938611    0.7530418493
O1148      O    0.7211533338    0.0585021532    0.7076689794
O1149      O    0.7150415062    0.0346571960    0.7983146010
O1150      O    0.7495744153    0.0684850088    0.7801945366
O1151      O    0.7950203171    0.0704752986    0.7378727801
O1152      O    0.7476356416    0.0769415566    0.7332000598
C1153      C    0.7315777663    0.0758562322    0.7175677553
O1154      O    0.7006771167   -0.0000033038    0.6871197640
O1155      O    0.7951153597   -0.0244532961    0.6845172473
O1156      O    0.7369013886    0.0237110834    0.6735927451
O1157      O    0.7758116522    0.0147099830    0.6722415450
O1158      O    0.7617291360   -0.0605866577    0.7052296996
O1159      O    0.7207625212   -0.0503162896    0.7033655269
C1160      C    0.7563659913    0.0211089766    0.6639388460
H1161      H    0.7914306597   -0.0358133320    0.7333764881
H1162      H    0.7054073471   -0.0163113024    0.7369293088
H1163      H    0.7648656582    0.0439766267    0.7062683930
H1164      H    0.7643180959    0.0257770302    0.7936669207
H1165      H    0.7184230043   -0.0766305161    0.7417019374
H1166      H    0.7021602097    0.0279276841    0.8089197498
H1167      H    0.7543665420    0.0858122009    0.7777315043
H1168      H    0.7564620884   -0.0777337565    0.7080764364
H1169      H    0.8087502914   -0.0180229910    0.6746920062
H1170      H    0.8205635432    0.0270620887    0.6871780919
H1171      H    0.7920644257    0.0872588341    0.7441985376
H1172      H    0.7039013960   -0.0480604546    0.7089931657
H1173      H    0.7103340738   -0.0123751969    0.6782950700
H1174      H    0.8209172529   -0.0033592805    0.8065848904
H1175      H    0.7938788590    0.0738736488    0.7848449378
H1176      H    0.8024104572   -0.0379329161    0.6938756678
H1177      H    0.6892698139   -0.0098601071    0.6969389978
H1178      H    0.7090509176   -0.0350335581    0.7944536160
H1179      H    0.7234978248   -0.0626053938    0.7666364710
H1180      H    0.7915396578    0.0715202747    0.7199872740
H1181      H    0.7288852339    0.0383382281    0.8098802505
H1182      H    0.8047215181    0.0199381526    0.8074313696
C1183      C    0.7336991551    0.0603893812    0.5062009448
N1184      N    0.7100524191    0.0488685845    0.4948871777
C1185      C    0.6980988343    0.0264613202    0.5068704754
N1186      N    0.7097919854    0.0155748526    0.5301675402
C1187      C    0.7334387213    0.0270956493    0.5414813073
N1188      N    0.7453923062    0.0495029136    0.5294980096
C1189      C    0.6840979492    0.2230167549    0.7032839707
N1190      N    0.6953473871    0.2341459879    0.6801859654
C1191      C    0.7179419224    0.2225579893    0.6687309306
N1192      N    0.7292870199    0.1998407578    0.6803739012
C1193      C    0.7180375820    0.1887115248    0.7034719066
N1194      N    0.6954430467    0.2002995233    0.7149269413
C1195      C    0.5293303263    0.0643755801    0.7345531479
N1196      N    0.5174408937    0.0525021330    0.7111690531
C1197      C    0.5288328960    0.0297888830    0.6991932874
N1198      N    0.5521143308    0.0189490803    0.7106016163
C1199      C    0.5640037633    0.0308225274    0.7339857111
N1200      N    0.5526117611    0.0535357774    0.7459614769
C1201      C    0.5489386868    0.2206079194    0.5747756732
N1202      N    0.5719264028    0.2318908317    0.5633616328
C1203      C    0.5829878063    0.2197824155    0.5404358648
N1204      N    0.5710614938    0.1963910872    0.5289241371
C1205      C    0.5480737779    0.1851081749    0.5403381774
N1206      N    0.5370123744    0.1972165910    0.5632639454
C1207      C    0.5745726360    0.5039194209    0.2076363876
N1208      N    0.5633930810    0.5269611000    0.2191746891
C1209      C    0.5407029464    0.5382910441    0.2070658819
N1210      N    0.5291923668    0.5265793092    0.1834187732
C1211      C    0.5403719219    0.5035376301    0.1718804718
N1212      N    0.5630620564    0.4922076860    0.1839892789
C1213      C    0.0737196885    0.5302235990    0.7186062743
N1214      N    0.0618281896    0.5182053514    0.6952956655
C1215      C    0.0387013961    0.5291361227    0.6836534814
N1216      N    0.0274661015    0.5520851416    0.6953219062
C1217      C    0.0393576004    0.5641033892    0.7186325149
N1218      N    0.0624843939    0.5531726179    0.7302746990
C1219      C    0.7673756651    0.9355955764    0.9726218213
N1220      N    0.7911293219    0.9466611673    0.9841575605
C1221      C    0.8033189338    0.9691939529    0.9726335620
N1222      N    0.7917548888    0.9806611477    0.9495738245
C1223      C    0.7680012320    0.9695955568    0.9380380853
N1224      N    0.7558116201    0.9470627712    0.9495620837
C1225      C    0.9824051379    0.9356547460    0.7538237306
N1226      N    0.9940008990    0.9468757539    0.7776614004
C1227      C    0.9828897446    0.9696982609    0.7897135561
N1228      N    0.9601828291    0.9812997601    0.7779280420
C1229      C    0.9485870680    0.9700787522    0.7540903722
N1230      N    0.9596982224    0.9472562452    0.7420382165
C1231      C    0.9297146555    0.7615346149    0.9565620154
N1232      N    0.9407738229    0.7497247689    0.9334821952
C1233      C    0.9636247039    0.7612978372    0.9220729478
N1234      N    0.9754164174    0.7846807515    0.9337435207
C1235      C    0.9643572500    0.7964905975    0.9568233409
N1236      N    0.9415063690    0.7849175292    0.9682325883
C1237      C    0.2258082102    0.5612416169    0.5195908794
N1238      N    0.2021049387    0.5499194666    0.5081990388
C1239      C    0.1900837886    0.5274277367    0.5199647421
N1240      N    0.2017659099    0.5162581572    0.5431222860
C1241      C    0.2254691814    0.5275803076    0.5545141265
N1242      N    0.2374903315    0.5500720374    0.5427484232
C1243      C    0.8025037302    0.7991450063    0.8267933180
N1244      N    0.8251019452    0.7875537841    0.8153520110
C1245      C    0.8366081837    0.7989198540    0.7925003223
N1246      N    0.8255162071    0.8218771460    0.7810899405
C1247      C    0.8029179921    0.8334683682    0.7925312475
N1248      N    0.7914117536    0.8221022983    0.8153829363
C1249      C    0.7747660804    0.8618347423   -0.0416637001
C1250      C    0.7647912942    0.8541251144   -0.0194624779
C1251      C    0.7585389787    0.8722968581   -0.0022109684
C1252      C    0.7619977049    0.8969904995   -0.0067163681
C1253      C    0.7719755830    0.9046997886   -0.0289156101
C1254      C    0.7782278985    0.8865280449   -0.0461671196
F1255      F    0.7878689503    0.8925367130   -0.0678369332
H1256      H    0.7798846799    0.8485248693   -0.0555576399
H1257      H    0.7568821974    0.9103000337    0.0071795519
F1258      F    0.7488979269    0.8662881901    0.0194588451
C1259      C    0.7863887112    0.7628654669   -0.1167226204
C1260      C    0.7820235143    0.7802730551   -0.0980859413
C1261      C    0.7855658569    0.8050421685   -0.1037037205
C1262      C    0.7930894317    0.8122712356   -0.1267255454
C1263      C    0.7974579582    0.7948638264   -0.1453606392
C1264      C    0.7939156156    0.7700947130   -0.1397428600
F1265      F    0.7977402878    0.7523985807   -0.1566720745
H1266      H    0.7839169765    0.7435332658   -0.1133005089
H1267      H    0.7955644959    0.8316036157   -0.1301460717
F1268      F    0.7817411847    0.8227383008   -0.0867745060
C1269      C    0.8690358016    0.7708551107   -0.0104804602
C1270      C    0.8513442074    0.7615608503   -0.0274402514
C1271      C    0.8590924156    0.7552059267   -0.0511708801
C1272      C    0.8832587871    0.7579221441   -0.0578298241
C1273      C    0.9009492974    0.7672195557   -0.0408714694
C1274      C    0.8932010891    0.7735744793   -0.0171408408
F1275      F    0.9091201326    0.7825909196    0.0000751819
H1276      H    0.8639745568    0.7760217200    0.0080529302
H1277      H    0.8883189480    0.7527586860   -0.0763646510
F1278      F    0.8431733721    0.7461894864   -0.0683869028
C1279      C    0.7490864700    0.7080065204    0.1205983953
C1280      C    0.7328119847    0.7229940259    0.1078511294
C1281      C    0.7125673565    0.7315260007    0.1206385036
C1282      C    0.7085965063    0.7255036283    0.1449474654
C1283      C    0.7248687436    0.7105135295    0.1576932727
C1284      C    0.7451133718    0.7019815547    0.1449058985
F1285      F    0.7614753477    0.6875491372    0.1559240228
H1286      H    0.7649740874    0.7009633558    0.1115441903
H1287      H    0.6927066409    0.7325441996    0.1540002118
F1288      F    0.6962053805    0.7459584182    0.1096203794
C1289      C    0.7417878338    0.6313725386    0.0098646910
C1290      C    0.7307757667    0.6504185892    0.0229561848
C1291      C    0.7149176610    0.6439468030    0.0418376752
C1292      C    0.7101635211    0.6197199309    0.0475172176
C1293      C    0.7211725996    0.6006742422    0.0344235904
C1294      C    0.7370307053    0.6071460284    0.0155421001
F1295      F    0.7482378469    0.5898910924    0.0022182130
H1296      H    0.7541586721    0.6354178643   -0.0048651826
H1297      H    0.6977896942    0.6156749671    0.0622449578
F1298      F    0.7037105194    0.6612017390    0.0551615622
C1299      C    0.6352330939    0.7110028050    0.0290166848
C1300      C    0.6432132178    0.7285935375    0.0123578391
C1301      C    0.6253017739    0.7409095764   -0.0012189862
C1302      C    0.6006012068    0.7360448107    0.0015566815
C1303      C    0.5926214144    0.7184519121    0.0182125465
C1304      C    0.6105328583    0.7061358732    0.0317893718
F1305      F    0.6042570315    0.6890519670    0.0480894845
H1306      H    0.6483360685    0.7010086838    0.0399161054
H1307      H    0.5874985637    0.7460367658   -0.0093457198
F1308      F    0.6315776007    0.7579934826   -0.0175190989
C1309      C    0.7237294484    0.5527170147    0.1175878561
C1310      C    0.7221903974    0.5354484002    0.0981252046
C1311      C    0.7257610964    0.5108187391    0.1038789038
C1312      C    0.7306361551    0.5035915845    0.1278128230
C1313      C    0.7321786947    0.5208602883    0.1472744702
C1314      C    0.7286079957    0.5454899495    0.1415207710
F1315      F    0.7298102267    0.5630484002    0.1592072264
H1316      H    0.7211159730    0.5719386911    0.1140990874
H1317      H    0.7332531191    0.4843699974    0.1313005874
F1318      F    0.7245588653    0.4932602884    0.0861924484
C1319      C    0.6390095687    0.5312713111    0.0496764307
C1320      C    0.6562971591    0.5352496591    0.0314268346
C1321      C    0.6484688935    0.5320995058    0.0067299573
C1322      C    0.6246083788    0.5253175963    0.0003672097
C1323      C    0.6073221009    0.5213358681    0.0186165386
C1324      C    0.6151503665    0.5244860214    0.0433134159
F1325      F    0.5996109177    0.5209954656    0.0617858115
H1326      H    0.6441481791    0.5334651763    0.0689902952
H1327      H    0.6194710809    0.5231203509   -0.0189469221
F1328      F    0.6640083423    0.5355900616   -0.0117424383
C1329      C    0.1447218934    0.5317621596    0.5424201140
C1330      C    0.1610811441    0.5296939771    0.5230073934
C1331      C    0.1513536387    0.5231715613    0.4995799428
C1332      C    0.1265540252    0.5188861863    0.4955335149
C1333      C    0.1101956097    0.5209508444    0.5149465724
C1334      C    0.1199231151    0.5274732602    0.5383740230
F1335      F    0.1053637958    0.5298011854    0.5578451536
H1336      H    0.1513254137    0.5367447878    0.5608309671
H1337      H    0.1199513401    0.5139000337    0.4771229987
F1338      F    0.1659129580    0.5208436361    0.4801088121
C1339      C    0.0532528313    0.6168925732    0.5137177936
C1340      C    0.0291917373    0.6078172758    0.5148386678
C1341      C    0.0108715936    0.6246579324    0.5199846958
C1342      C    0.0161148906    0.6493703703    0.5238494169
C1343      C    0.0401759358    0.6584448541    0.5227321185
C1344      C    0.0584960795    0.6416041975    0.5175860905
F1345      F    0.0819571237    0.6489628661    0.5162229485
H1346      H    0.0680285767    0.6046398392    0.5098085926
H1347      H    0.0013390963    0.6616222907    0.5277621937
F1348      F   -0.0125894507    0.6172992638    0.5213478379
C1349      C    0.0113813749    0.5330310632    0.6181267602
C1350      C    0.0285491584    0.5221538033    0.6028033836
C1351      C    0.0511232655    0.5160731614    0.6135468092
C1352      C    0.0564782341    0.5205506377    0.6383381782
C1353      C    0.0393121255    0.5314309273    0.6536603810
C1354      C    0.0167380183    0.5375115691    0.6429169553
F1355      F   -0.0005983484    0.5479787065    0.6564520550
H1356      H   -0.0062928184    0.5380592791    0.6107165109
H1357      H    0.0741541023    0.5155254515    0.6457472536
F1358      F    0.0684596322    0.5056060241    0.6000117095
C1359      C   -0.1235577664    0.4499283558    0.4512902509
C1360      C   -0.1423050186    0.4560263881    0.4673448405
C1361      C   -0.1358927318    0.4700268306    0.4885625744
C1362      C   -0.1120057051    0.4776551655    0.4936730976
C1363      C   -0.0932583450    0.4715542100    0.4776206643
C1364      C   -0.0996706317    0.4575537675    0.4564029304
F1365      F   -0.0826891411    0.4510212663    0.4401838123
H1366      H   -0.1275710631    0.4391598584    0.4346816387
H1367      H   -0.1079923005    0.4884207397    0.5102838661
F1368      F   -0.1528742225    0.4765593318    0.5047816926
C1369      C   -0.0207909924    0.4625584501    0.3601382270
C1370      C   -0.0333552927    0.4804411470    0.3470156069
C1371      C   -0.0390592519    0.5020969654    0.3597924685
C1372      C   -0.0326239578    0.5058960912    0.3844467225
C1373      C   -0.0200630790    0.4880122692    0.3975699620
C1374      C   -0.0143591198    0.4663564508    0.3847931004
F1375      F   -0.0023497569    0.4484154429    0.3961594565
H1376      H   -0.0159751031    0.4455423124    0.3511084127
H1377      H   -0.0374432687    0.5229111038    0.3934771563
F1378      F   -0.0510686149    0.5200379733    0.3484261125
C1379      C   -0.0020678527    0.3584410981    0.4869471418
C1380      C   -0.0189704494    0.3504077710    0.4686013741
C1381      C   -0.0314602849    0.3683468047    0.4554317955
C1382      C   -0.0274133465    0.3931241514    0.4601943593
C1383      C   -0.0105137191    0.4011571996    0.4785421865
C1384      C    0.0019761163    0.3832181660    0.4917117650
F1385      F    0.0184340364    0.3895415832    0.5095493888
H1386      H    0.0080261410    0.3453196974    0.4976140396
H1387      H   -0.0375103096    0.4062452732    0.4495295210
F1388      F   -0.0479182049    0.3620233875    0.4375941718
C1389      C    0.0026131852    0.2808517569    0.3954645257
C1390      C   -0.0203154485    0.2874264216    0.4041500297
C1391      C   -0.0397045922    0.2883029269    0.3868462185
C1392      C   -0.0365567349    0.2829173472    0.3620594794
C1393      C   -0.0136277931    0.2763463113    0.3533736401
C1394      C    0.0057613506    0.2754698060    0.3706774513
F1395      F    0.0282392913    0.2693174062    0.3637095640
H1396      H    0.0181430524    0.2799144587    0.4080812174
H1397      H   -0.0520862940    0.2838582742    0.3494424524
F1398      F   -0.0621825329    0.2944553267    0.3938141058
C1399      C   -0.1404895164    0.2843164972    0.2824740293
C1400      C   -0.1576165951    0.2710526976    0.2676858979
C1401      C   -0.1486256068    0.2549417128    0.2497382969
C1402      C   -0.1238040690    0.2520773104    0.2465590239
C1403      C   -0.1066774162    0.2653434993    0.2613444420
C1404      C   -0.1156684045    0.2814544841    0.2792920430
F1405      F   -0.1003509697    0.2947642212    0.2941317117
H1406      H   -0.1465074207    0.2969744213    0.2965741670
H1407      H   -0.1177865905    0.2394217756    0.2324561730
F1408      F   -0.1639430416    0.2416319757    0.2348986283
C1409      C   -0.0230866948    0.3720452944    0.2968457120
C1410      C   -0.0231759973    0.3631969243    0.2724035447
C1411      C   -0.0286753021    0.3797768364    0.2537236409
C1412      C   -0.0338548334    0.4040248397    0.2589833481
C1413      C   -0.0337690185    0.4128720794    0.2834252060
C1414      C   -0.0282697136    0.3962921674    0.3021051098
F1415      F   -0.0278409763    0.4034568484    0.3259421532
H1416      H   -0.0189563089    0.3599785067    0.3119076547
H1417      H   -0.0379887068    0.4160904970    0.2439210959
F1418      F   -0.0291040394    0.3726121554    0.2298865975
C1419      C    0.0196165247    0.2089767878    0.1350921466
C1420      C    0.0195324739    0.2330753385    0.1444554880
C1421      C    0.0242508550    0.2519923199    0.1279690888
C1422      C    0.0288469851    0.2472848699    0.1033230491
C1423      C    0.0289345469    0.2231866575    0.0939607651
C1424      C    0.0242161658    0.2042696762    0.1104471644
F1425      F    0.0239971772    0.1807363764    0.1027991100
H1426      H    0.0160796449    0.1937515679    0.1470667758
H1427      H    0.0323873759    0.2625104281    0.0913494773
F1428      F    0.0244698436    0.2755256197    0.1356171431
C1429      C    0.1306367661    0.2141035105    0.1987634574
C1430      C    0.1478884715    0.2114917681    0.2179747365
C1431      C    0.1402076035    0.2159361795    0.2421402184
C1432      C    0.1165221559    0.2226631547    0.2470838241
C1433      C    0.0992718449    0.2252783063    0.2278726706
C1434      C    0.1069527129    0.2208338950    0.2037071887
F1435      F    0.0914372703    0.2229759977    0.1843764265
H1436      H    0.1356662993    0.2108800014    0.1798073865
H1437      H    0.1114940171    0.2258900731    0.2660400206
F1438      F    0.1557230461    0.2137940767    0.2614709806
C1439      C    0.0480336221    0.1147598371    0.2148913028
C1440      C    0.0301649120    0.0965907706    0.2187271206
C1441      C    0.0074955722    0.1041729573    0.2273362970
C1442      C    0.0027130329    0.1286324538    0.2319456697
C1443      C    0.0205825856    0.1468007527    0.2281133535
C1444      C    0.0432519254    0.1392185660    0.2195041771
F1445      F    0.0612436341    0.1555907043    0.2154062105
H1446      H    0.0658097777    0.1098436304    0.2082671200
H1447      H   -0.0150622801    0.1335478929    0.2385733540
F1448      F   -0.0104961365    0.0878008190    0.2314342635
C1449      C    0.8954352549    0.4783415292    0.2602057693
C1450      C    0.9036198499    0.4773364539    0.2848391875
C1451      C    0.8859876817    0.4786239433    0.3031789326
C1452      C    0.8613608606    0.4808079028    0.2974125463
C1453      C    0.8531768824    0.4818165519    0.2727797827
C1454      C    0.8708090506    0.4805290624    0.2544400376
F1455      F    0.8643260292    0.4813794142    0.2304469177
H1456      H    0.9083199740    0.4774189326    0.2453910554
H1457      H    0.8484767583    0.4817340731    0.3122279147
F1458      F    0.8924707031    0.4777735915    0.3271720525
C1459      C    0.9089931910    0.2601572411    0.4693041856
C1460      C    0.9164247585    0.2847216559    0.4672425726
C1461      C    0.8984172581    0.3025499011    0.4691113469
C1462      C    0.8741440937    0.2963592229    0.4728520505
C1463      C    0.8667121576    0.2717951156    0.4749100086
C1464      C    0.8847196580    0.2539668704    0.4730412343
F1465      F    0.8789586875    0.2300699166    0.4748365017
H1466      H    0.9221914802    0.2457292840    0.4679886334
H1467      H    0.8609454359    0.3107874874    0.4741639478
F1468      F    0.9041782286    0.3264468549    0.4673160795
C1469      C    0.5243040212    0.1306130540    0.7563832116
C1470      C    0.5227434558    0.1460903108    0.7361094857
C1471      C    0.5256560077    0.1355408229    0.7125825474
C1472      C    0.5299214370    0.1107894110    0.7092560481
C1473      C    0.5314855101    0.0953132077    0.7295296302
C1474      C    0.5285729582    0.1058626957    0.7530565685
F1475      F    0.5298364372    0.0921727636    0.7733324468
H1476      H    0.5221854291    0.1378711569    0.7749053286
H1477      H    0.5320435368    0.1035323617    0.6907337873
F1478      F    0.5243925287    0.1492307550    0.6923066691
C1479      C    0.5361990332    0.2484187493    0.6339561600
C1480      C    0.5323884917    0.2295566846    0.6506943080
C1481      C    0.5356270879    0.2054370258    0.6421880837
C1482      C    0.5423348266    0.2002066666    0.6181988036
C1483      C    0.5461417947    0.2190681288    0.6014600337
C1484      C    0.5429031985    0.2431877876    0.6099662580
F1485      F    0.5462342263    0.2621919667    0.5949792935
H1486      H    0.5339299712    0.2673254253    0.6396265647
H1487      H    0.5446003153    0.1812993881    0.6125277770
F1488      F    0.5322960601    0.1864328467    0.6571750482
C1489      C    0.6252107954    0.2331771830    0.7379494777
C1490      C    0.6057776293    0.2310223853    0.7207260542
C1491      C    0.6113150130    0.2240492930    0.6964748748
C1492      C    0.6350139473    0.2194144798    0.6895672370
C1493      C    0.6544471063    0.2215727193    0.7067894774
C1494      C    0.6489097227    0.2285458116    0.7310406568
F1495      F    0.6665821788    0.2309807071    0.7485337484
H1496      H    0.6218833601    0.2385034179    0.7568848598
H1497      H    0.6383413755    0.2140916868    0.6706306718
F1498      F    0.5936425568    0.2216143976    0.6789817832
C1499      C    0.3841157968    0.2653689853    0.7556290585
C1500      C    0.4037326224    0.2781470725    0.7672999173
C1501      C    0.3982027361    0.2976748898    0.7832833351
C1502      C    0.3743370952    0.3042698069    0.7875337474
C1503      C    0.3547208716    0.2914942416    0.7758603397
C1504      C    0.3602507579    0.2719664243    0.7598769219
F1505      F    0.3424073885    0.2588915033    0.7480523275
H1506      H    0.3874299167    0.2501684975    0.7431347566
H1507      H    0.3710235773    0.3194728166    0.8000255004
F1508      F    0.4160461055    0.3107498107    0.7951079294
C1509      C    0.4598961260    0.3645797757    0.7603284038
C1510      C    0.4833270213    0.3556714963    0.7651162015
C1511      C    0.5013858456    0.3725378361    0.7736666564
C1512      C    0.4964890399    0.3971167271    0.7773185700
C1513      C    0.4730595439    0.4060254052    0.7725274287
C1514      C    0.4550007196    0.3891590654    0.7639769738
F1515      F    0.4321401287    0.3963609666    0.7590015422
H1516      H    0.4453437018    0.3523009344    0.7537060676
H1517      H    0.5110428634    0.4093959671    0.7839375626
F1518      F    0.5242464365    0.3653359350    0.7786420880
C1519      C    0.4571759948    0.2650233518    0.8640560259
C1520      C    0.4811845191    0.2611718217    0.8566587921
C1521      C    0.4993563438    0.2598908629    0.8752242568
C1522      C    0.4940208362    0.2623111138    0.8999990201
C1523      C    0.4700133897    0.2661661291    0.9073958700
C1524      C    0.4518415650    0.2674470879    0.8888304053
F1525      F    0.4284383349    0.2710981019    0.8945246992
H1526      H    0.4425140552    0.2661498027    0.8504373219
H1527      H    0.5086838536    0.2611881481    0.9136173401
F1528      F    0.5227595739    0.2562398489    0.8695299629
C1529      C    0.3756847354    0.5007295581    0.7706204735
C1530      C    0.3592574124    0.4826597917    0.7612936482
C1531      C    0.3683965566    0.4592081111    0.7567987122
C1532      C    0.3926974138    0.4538670440    0.7613262350
C1533      C    0.4091251107    0.4719373742    0.7706494570
C1534      C    0.3999859665    0.4953890548    0.7751443931
F1535      F    0.4146450482    0.5136163605    0.7840758840
H1536      H    0.3695259913    0.5191013923    0.7743908730
H1537      H    0.3988565318    0.4354957736    0.7575522322
F1538      F    0.3537374750    0.4409808054    0.7478672212
C1539      C    0.2573358335    0.4919351270    0.8626048401
C1540      C    0.2719559939    0.4818056081    0.8442907291
C1541      C    0.2904036515    0.4659416107    0.8518588691
C1542      C    0.2942206209    0.4603462444    0.8764422368
C1543      C    0.2796030638    0.4704783745    0.8947562862
C1544      C    0.2611554062    0.4863423719    0.8871881462
F1545      F    0.2464401376    0.4967302060    0.9036954975
H1546      H    0.2428675220    0.5042740978    0.8577055288
H1547      H    0.3086915357    0.4480098848    0.8813414864
F1548      F    0.3051189201    0.4555537766    0.8353515177
C1549      C    0.3073909681    0.3751895870    0.7806402209
C1550      C    0.2911336662    0.3558893888    0.7740890217
C1551      C    0.2691039056    0.3618526738    0.7621493791
C1552      C    0.2634080028    0.3858334066    0.7569227389
C1553      C    0.2796634106    0.4051334732    0.7634770414
C1554      C    0.3016931712    0.3991701883    0.7754166840
F1555      F    0.3181511582    0.4166926475    0.7822400276
H1556      H    0.3246177391    0.3715367995    0.7898813834
H1557      H    0.2461793376    0.3894860625    0.7476846797
F1558      F    0.2526459186    0.3443302146    0.7553260355
C1559      C    0.2390188984    0.5034957274    0.6187133205
C1560      C    0.2351099293    0.5217663781    0.6366223168
C1561      C    0.2259702174    0.5441199704    0.6285174948
C1562      C    0.2209222170    0.5482197143    0.6038039423
C1563      C    0.2248344856    0.5299506936    0.5858949917
C1564      C    0.2339741976    0.5075971013    0.5939998137
F1565      F    0.2381717000    0.4892519186    0.5779018003
H1566      H    0.2460460112    0.4859400049    0.6240326984
H1567      H    0.2138984037    0.5657770668    0.5984846101
F1568      F    0.2217727150    0.5624651531    0.6446155082
C1569      C    0.1208384464    0.5414253827    0.7003265770
C1570      C    0.1030780807    0.5318765359    0.7158983008
C1571      C    0.1111562878    0.5178297952    0.7357696536
C1572      C    0.1357036514    0.5134242425    0.7400485576
C1573      C    0.1534632974    0.5229699142    0.7244750474
C1574      C    0.1453850903    0.5370166549    0.7046036946
F1575      F    0.1613471097    0.5467533535    0.6889177427
H1576      H    0.1155325457    0.5523743000    0.6847481136
H1577      H    0.1410088324    0.5024721501    0.7556252345
F1578      F    0.0951942685    0.5080930966    0.7514556054
C1579      C    0.2505968533    0.6233681435    0.7090817741
C1580      C    0.2357481215    0.6093261595    0.7243464766
C1581      C    0.2159145191    0.6209253523    0.7352097064
C1582      C    0.2109872569    0.6453227162    0.7311564106
C1583      C    0.2258377883    0.6593653058    0.7158949150
C1584      C    0.2456713906    0.6477661130    0.7050316852
F1585      F    0.2606845554    0.6600588843    0.6901945728
H1586      H    0.2661161611    0.6152614040    0.7002784929
H1587      H    0.1954697486    0.6534300613    0.7399628986
F1588      F    0.2009013544    0.6086325810    0.7500468187
C1589      C    0.2682747878    0.3013199006    0.8529024953
C1590      C    0.2882457597    0.2907249415    0.8413475708
C1591      C    0.3016744713    0.2736188735    0.8547262042
C1592      C    0.2956212656    0.2672752177    0.8784722710
C1593      C    0.2756528842    0.2778726350    0.8900282332
C1594      C    0.2622241726    0.2949787029    0.8766495998
F1595      F    0.2428621827    0.3058761127    0.8865244028
H1596      H    0.2573452214    0.3146108949    0.8433542904
H1597      H    0.3065534225    0.2539866815    0.8880215136
F1598      F    0.3210364612    0.2627214637    0.8448514012
C1599      C    0.4964284744    0.4680829741    0.8441992880
C1600      C    0.4724566727    0.4685608979    0.8346242262
C1601      C    0.4537093202    0.4729021281    0.8512851756
C1602      C    0.4584591473    0.4766052284    0.8762987391
C1603      C    0.4824300740    0.4761237507    0.8858740488
C1604      C    0.5011774264    0.4717825205    0.8692130994
F1605      F    0.5245826748    0.4710677452    0.8770462182
H1606      H    0.5115208496    0.4648035087    0.8321029922
H1607      H    0.4433658971    0.4798811399    0.8883952828
F1608      F    0.4303040718    0.4736169034    0.8434520568
C1609      C    0.4007616438    0.7973418326    0.4710912173
C1610      C    0.4132070226    0.7828509120    0.4540585203
C1611      C    0.4006826432    0.7623440416    0.4436978288
C1612      C    0.3769112395    0.7564335724    0.4499059894
C1613      C    0.3644674232    0.7709221787    0.4669410245
C1614      C    0.3769918026    0.7914290492    0.4773017160
F1615      F    0.3662370830    0.8061536365    0.4937454181
H1616      H    0.4096313586    0.8133502111    0.4795940334
H1617      H    0.3680430872    0.7404228796    0.4414055114
F1618      F    0.4114373628    0.7476194542    0.4272541267
C1619      C    0.2609795379    0.8669714444    0.4944273040
C1620      C    0.2762794064    0.8501073463    0.4830119532
C1621      C    0.2953059814    0.8594926935    0.4688408377
C1622      C    0.2990336189    0.8844427463    0.4660833458
C1623      C    0.2837318779    0.9013063273    0.4774955179
C1624      C    0.2647053029    0.8919209801    0.4916666334
F1625      F    0.2493244716    0.9069698315    0.5031419071
H1626      H    0.2460466789    0.8606463262    0.5055491487
H1627      H    0.3139646054    0.8907673474    0.4549583224
F1628      F    0.3106868127    0.8444438421    0.4573655640
C1629      C    0.2626015249    0.7617580721    0.3693920398
C1630      C    0.2816945746    0.7605144779    0.3869499894
C1631      C    0.3056577042    0.7628712840    0.3785395325
C1632      C    0.3105195441    0.7663046851    0.3538657721
C1633      C    0.2914269885    0.7675446642    0.3363077228
C1634      C    0.2674638589    0.7651878581    0.3447181797
F1635      F    0.2482553409    0.7661939581    0.3289648986
H1636      H    0.2438024551    0.7600413680    0.3749557394
H1637      H    0.3293191080    0.7680177742    0.3483019728
F1638      F    0.3248662222    0.7618651840    0.3942928136
C1639      C    0.2139862916    0.7307389107    0.6087210495
C1640      C    0.2380535609    0.7296822278    0.6005490363
C1641      C    0.2564261596    0.7247765609    0.6181188003
C1642      C    0.2512272226    0.7210811062    0.6426739683
C1643      C    0.2271609139    0.7221413194    0.6508464383
C1644      C    0.2087883151    0.7270469864    0.6332766743
F1645      F    0.1853180397    0.7283338598    0.6397516940
H1646      H    0.1991711316    0.7344666753    0.5958828870
H1647      H    0.2660433432    0.7173568719    0.6555125876
F1648      F    0.2798964351    0.7234896874    0.6116437807
C1649      C    0.1384306107    0.7380361866    0.4967047692
C1650      C    0.1564123712    0.7289894617    0.5127168505
C1651      C    0.1485339334    0.7158966574    0.5331830584
C1652      C    0.1239681909    0.7119288212    0.5376144426
C1653      C    0.1059868267    0.7209784405    0.5216046555
C1654      C    0.1138652645    0.7340712448    0.5011384476
F1655      F    0.0976854895    0.7432810524    0.4850058769
H1656      H    0.1435770611    0.7482491856    0.4806620477
H1657      H    0.1188221368    0.7017187166    0.5536594583
F1658      F    0.1647137084    0.7066868498    0.5493156291
C1659      C    0.2185111811    0.6355876996    0.5285703438
C1660      C    0.2374144759    0.6421220346    0.5128244061
C1661      C    0.2503815166    0.6230984458    0.5017371369
C1662      C    0.2448972098    0.5987021042    0.5060315529
C1663      C    0.2259966630    0.5921680383    0.5217799739
C1664      C    0.2130296224    0.6111916271    0.5328672432
F1665      F    0.1946866022    0.6063262576    0.5481633241
H1666      H    0.2079736737    0.6495870043    0.5375636530
H1667      H    0.2554374653    0.5847030686    0.4970407271
F1668      F    0.2687245368    0.6279638153    0.4864410560
C1669      C    0.3863570944    0.7371340986    0.2583332783
C1670      C    0.4041414134    0.7559418056    0.2598837605
C1671      C    0.3964243700    0.7795012414    0.2663839350
C1672      C    0.3722000503    0.7842467990    0.2711381943
C1673      C    0.3544155805    0.7654401777    0.2695842149
C1674      C    0.3621326239    0.7418807419    0.2630840404
F1675      F    0.3461259315    0.7229620119    0.2612392049
H1676      H    0.3913907002    0.7186503220    0.2533877365
H1677      H    0.3671662936    0.8027316614    0.2760802389
F1678      F    0.4124310624    0.7984199714    0.2682287705
C1679      C    0.4645173208    0.8534787247    0.2526466176
C1680      C    0.4858954272    0.8427108316    0.2616055866
C1681      C    0.5022908576    0.8575874259    0.2757230606
C1682      C    0.4977452790    0.8820222644    0.2807548242
C1683      C    0.4763693270    0.8927907932    0.2717930020
C1684      C    0.4599738966    0.8779141989    0.2576755279
F1685      F    0.4391210240    0.8869652927    0.2484827808
H1686      H    0.4513010333    0.8427725977    0.2416683211
H1687      H    0.5109637209    0.8927290271    0.2917302674
F1688      F    0.5231437302    0.8485363321    0.2849158077
C1689      C    0.4771137987    0.7497654002    0.3565947508
C1690      C    0.4869139842    0.7663492788    0.3398759402
C1691      C    0.4918203537    0.7903850108    0.3484529759
C1692      C    0.4872385516    0.7976919057    0.3724917430
C1693      C    0.4774352536    0.7811092904    0.3892091205
C1694      C    0.4725288840    0.7570735585    0.3806320848
F1695      F    0.4631342065    0.7401870049    0.3955971547
H1696      H    0.4730128162    0.7310190057    0.3508698838
H1697      H    0.4913364216    0.8164395636    0.3782151768
F1698      F    0.5012150312    0.8072715643    0.3334879059
C1699      C    0.5519855177    0.6189035139    0.2094515277
C1700      C    0.5290065998    0.6257957641    0.2177478161
C1701      C    0.5114303178    0.6071414182    0.2208738614
C1702      C    0.5163611183    0.5827596681    0.2160116977
C1703      C    0.5393383950    0.5758679938    0.2077121494
C1704      C    0.5569146770    0.5945223397    0.2045861041
F1705      F    0.5793259333    0.5893018392    0.1966977184
H1706      H    0.5661564492    0.6326105027    0.2067508235
H1707      H    0.5021885456    0.5690532552    0.2187091420
F1708      F    0.4890190616    0.6123619187    0.2287622471
C1709      C    0.6283248466    0.7353744183    0.2272201524
C1710      C    0.6109364026    0.7162294556    0.2277809043
C1711      C    0.6193576941    0.6922230601    0.2253447765
C1712      C    0.6438813517    0.6873689519    0.2224819703
C1713      C    0.6612689212    0.7065136801    0.2219176229
C1714      C    0.6528476296    0.7305200756    0.2243537507
F1715      F    0.6684432795    0.7497793859    0.2239874994
H1716      H    0.6227455551    0.7542082360    0.2290237796
H1717      H    0.6494597687    0.6685348997    0.2206747476
F1718      F    0.6037620442    0.6729637498    0.2257110278
C1719      C    0.5436998814    0.7136607351    0.1235076791
C1720      C    0.5213347769    0.7218297982    0.1322853983
C1721      C    0.5027986994    0.7263883659    0.1147804493
C1722      C    0.5062296126    0.7230178668    0.0897138683
C1723      C    0.5285954201    0.7148524079    0.0809361852
C1724      C    0.5471314976    0.7102938401    0.0984411342
F1725      F    0.5690332625    0.7024319237    0.0914002735
H1726      H    0.5585655615    0.7098919407    0.1362714885
H1727      H    0.4913646355    0.7267902653    0.0769500950
F1728      F    0.4808969345    0.7342502823    0.1218213100
C1729      C    0.2651888651    0.8403618342    0.2652436978
C1730      C    0.2891197840    0.8334399703    0.2710479929
C1731      C    0.3071365587    0.8520417726    0.2730013058
C1732      C    0.3017261050    0.8764012635    0.2693758680
C1733      C    0.2777963575    0.8833225065    0.2635681580
C1734      C    0.2597795828    0.8647207041    0.2616148451
F1735      F    0.2364580228    0.8699719728    0.2561108634
H1736      H    0.2506466269    0.8266955330    0.2635293808
H1737      H    0.3162695146    0.8900669438    0.2710867701
F1738      F    0.3304581187    0.8467905040    0.2785052875
C1739      C    0.1427499695    0.7073700316    0.7053338487
C1740      C    0.1610034889    0.7230894418    0.7155188142
C1741      C    0.1535190181    0.7431453331    0.7298301942
C1742      C    0.1290731048    0.7474610366    0.7338868553
C1743      C    0.1108198798    0.7317439571    0.7236991117
C1744      C    0.1183043506    0.7116880659    0.7093877317
F1745      F    0.1018478794    0.6958526242    0.6990459580
H1746      H    0.1475891233    0.6916477538    0.6941577653
H1747      H    0.1242342454    0.7631856451    0.7450601606
F1748      F    0.1699754893    0.7589807747    0.7401719679
C1749      C    0.5011934740    0.8563064853    0.4622620519
C1750      C    0.4776899594    0.8482829330    0.4546847495
C1751      C    0.4591553536    0.8656637889    0.4544702989
C1752      C    0.4636654786    0.8898975813    0.4614388264
C1753      C    0.4871677347    0.8979201198    0.4690193933
C1754      C    0.5057023405    0.8805392639    0.4692338439
F1755      F    0.5286600949    0.8868888180    0.4762728085
H1756      H    0.5161061181    0.8436034232    0.4627468530
H1757      H    0.4487515761    0.9025996296    0.4609572898
F1758      F    0.4361975992    0.8593142348    0.4474313343
C1759      C   -0.0026850678    0.7657009519    0.8616208114
C1760      C   -0.0205050999    0.7614318024    0.8429916328
C1761      C   -0.0449794311    0.7601138800    0.8500684790
C1762      C   -0.0515358426    0.7628941717    0.8744798561
C1763      C   -0.0337158906    0.7671596621    0.8931090210
C1764      C   -0.0092415594    0.7684775845    0.8860321748
F1765      F    0.0088185008    0.7725198381    0.9028625019
H1766      H    0.0164434981    0.7668712424    0.8571036773
H1767      H   -0.0706644886    0.7617202220    0.8789969765
F1768      F   -0.0630394914    0.7560716264    0.8332381519
C1769      C   -0.1102976735    0.7644861939    0.7692825615
C1770      C   -0.0898243928    0.7801447545    0.7723452376
C1771      C   -0.0933784953    0.8032712070    0.7832516712
C1772      C   -0.1161637031    0.8105837566    0.7907920592
C1773      C   -0.1366371513    0.7949268669    0.7877261395
C1774      C   -0.1330830488    0.7718004145    0.7768197060
F1775      F   -0.1518444027    0.7558288557    0.7732960676
H1776      H   -0.1085031455    0.7464617936    0.7609655611
H1777      H   -0.1179583985    0.8286098279    0.7991058160
F1778      F   -0.0746171414    0.8192427658    0.7867753096
C1779      C   -0.0154211948    0.8689448926    0.7328607503
C1780      C   -0.0111354718    0.8541709962    0.7533009446
C1781      C   -0.0112518041    0.8654613307    0.7767643329
C1782      C   -0.0154206980    0.8902559871    0.7798723954
C1783      C   -0.0197027815    0.9050302052    0.7594324233
C1784      C   -0.0195864492    0.8937398707    0.7359690350
F1785      F   -0.0235540586    0.9067307777    0.7155427640
H1786      H   -0.0155157406    0.8611010998    0.7143792508
H1787      H   -0.0153225128    0.8981001017    0.7983541170
F1788      F   -0.0072841947    0.8524704237    0.7971906039
C1789      C    0.0158709281    0.7241652715    0.5930619309
C1790      C    0.0400838375    0.7220831886    0.5855584207
C1791      C    0.0585957820    0.7245926030    0.6037987837
C1792      C    0.0533923473    0.7289658849    0.6283629696
C1793      C    0.0291801330    0.7310514724    0.6358657107
C1794      C    0.0106681885    0.7285420580    0.6176253477
F1795      F   -0.0129458186    0.7303144290    0.6234386815
H1796      H    0.0009449114    0.7223714824    0.5796916658
H1797      H    0.0683190590    0.7307631785    0.6417324656
F1798      F    0.0822097890    0.7228202320    0.5979854499
C1799      C    0.0525749246    0.6378865051    0.7203799818
C1800      C    0.0285367534    0.6453894643    0.7238281416
C1801      C    0.0100523454    0.6272158256    0.7231119934
C1802      C    0.0151167067    0.6027160325    0.7191619437
C1803      C    0.0391539396    0.5952137165    0.7157102769
C1804      C    0.0576383475    0.6133873552    0.7164264251
F1805      F    0.0810886526    0.6075703743    0.7132747829
H1806      H    0.0674727658    0.6512066848    0.7207696196
H1807      H    0.0002179271    0.5893964961    0.7187687990
F1808      F   -0.0133979596    0.6330328065    0.7262636356
C1809      C    0.7137575177    0.6005723653    0.2182814490
C1810      C    0.7342141522    0.5934365563    0.2321739940
C1811      C    0.7499109093    0.6120194755    0.2418402724
C1812      C    0.7455689436    0.6365634423    0.2379403460
C1813      C    0.7251146787    0.6436988906    0.2240450747
C1814      C    0.7094179216    0.6251159715    0.2143787962
F1815      F    0.6894633057    0.6305667510    0.2008905590
H1816      H    0.7011049476    0.5869294206    0.2104336047
H1817      H    0.7582238833    0.6502060263    0.2457854639
F1818      F    0.7698655252    0.6065686959    0.2553285096
C1819      C    0.6338400250    0.4985752668    0.2390980225
C1820      C    0.6522866110    0.5029972504    0.2221405403
C1821      C    0.6451064224    0.5105123923    0.1985081987
C1822      C    0.6207689915    0.5135196087    0.1919411522
C1823      C    0.6023226245    0.5090942567    0.2088971624
C1824      C    0.6095028131    0.5015791149    0.2325295039
F1825      F    0.5928482375    0.4970078725    0.2497372258
H1826      H    0.6384425552    0.4927455587    0.2575575382
H1827      H    0.6161666804    0.5193459484    0.1734801645
F1828      F    0.6617609981    0.5150836346    0.1813004769
C1829      C    0.8044369358    0.4659914196    0.3610623926
C1830      C    0.7799819462    0.4653587874    0.3528274110
C1831      C    0.7622344725    0.4585909081    0.3698169891
C1832      C    0.7683988686    0.4527114580    0.3938764111
C1833      C    0.7928536461    0.4533406287    0.4021101335
C1834      C    0.8106011197    0.4601085080    0.3851205554
F1835      F    0.8343915147    0.4611206678    0.3916907757
H1836      H    0.8187996284    0.4710970849    0.3486619534
H1837      H    0.7540359639    0.4476023312    0.4062755910
F1838      F    0.7384440776    0.4575787483    0.3632467688
C1839      C    0.7918256030    0.3757154635    0.2716370091
C1840      C    0.7696751441    0.3839617301    0.2617195900
C1841      C    0.7517404890    0.3662257028    0.2549994629
C1842      C    0.7555438846    0.3414410803    0.2579561120
C1843      C    0.7776952050    0.3331948366    0.2678699701
C1844      C    0.7956298601    0.3509308640    0.2745900972
F1845      F    0.8172948089    0.3443973124    0.2842088672
H1846      H    0.8062307817    0.3886753610    0.2771026800
H1847      H    0.7411395675    0.3284812058    0.2524868801
F1848      F    0.7300755402    0.3727592543    0.2453806929
C1849      C    0.7152149112    0.2413595126    0.6025410094
C1850      C    0.7337255505    0.2278310512    0.5915975193
C1851      C    0.7453083245    0.2102314150    0.6060260685
C1852      C    0.7388707031    0.2061926009    0.6301982704
C1853      C    0.7203629130    0.2197232798    0.6411426242
C1854      C    0.7087801390    0.2373229160    0.6267140750
F1855      F    0.6908880671    0.2509715301    0.6359560603
H1856      H    0.7057331078    0.2551459626    0.5921786966
H1857      H    0.7483553557    0.1924083684    0.6405614469
F1858      F    0.7632003964    0.1965828009    0.5967840832
C1859      C    0.6405885624    0.2297572432    0.5051753687
C1860      C    0.6603373105    0.2263658342    0.5215659065
C1861      C    0.6550405005    0.2185500301    0.5453953079
C1862      C    0.6312730710    0.2142793124    0.5526877416
C1863      C    0.6115246033    0.2176741047    0.5362986642
C1864      C    0.6168214134    0.2254899088    0.5124692629
F1865      F    0.5988411634    0.2291243862    0.4957748925
H1866      H    0.6437220492    0.2357686721    0.4865921227
H1867      H    0.6281398646    0.2082712668    0.5712724481
F1868      F    0.6730207505    0.2149155526    0.5620896783
C1869      C    0.7538995731    0.1232799623    0.4914074266
C1870      C    0.7412564533    0.1410555452    0.5047236204
C1871      C    0.7237772839    0.1328224631    0.5213538106
C1872      C    0.7190156145    0.1081124431    0.5246656075
C1873      C    0.7316559476    0.0903373369    0.5113470407
C1874      C    0.7491351170    0.0985704189    0.4947168506
F1875      F    0.7619563829    0.0826040652    0.4813259423
H1876      H    0.7675566643    0.1287013949    0.4783575914
H1877      H    0.7053557366    0.1026914871    0.5377130697
F1878      F    0.7109560180    0.1487888169    0.5347447188
C1879      C    0.7968233394    0.2657272141    0.3734295697
C1880      C    0.7736643404    0.2607925578    0.3828817534
C1881      C    0.7537351990    0.2598723155    0.3661428920
C1882      C    0.7565842607    0.2636633071    0.3411710776
C1883      C    0.7797422899    0.2686013901    0.3317196973
C1884      C    0.7996714313    0.2695216325    0.3484585587
F1885      F    0.8223971715    0.2741543829    0.3407440256
H1886      H    0.8127680092    0.2666291018    0.3855898316
H1887      H    0.7406386211    0.2627648462    0.3290116191
F1888      F    0.7310094587    0.2552395650    0.3738574251
C1889      C    0.7660328834    0.3601311529    0.4748498630
C1890      C    0.7839718814    0.3421947252    0.4739876736
C1891      C    0.8078493572    0.3498503308    0.4686391334
C1892      C    0.8137218123    0.3741598562    0.4643356511
C1893      C    0.7957824579    0.3920952978    0.4651942808
C1894      C    0.7719049821    0.3844396922    0.4705428210
F1895      F    0.7537721657    0.4005915530    0.4716787954
H1896      H    0.7473471008    0.3551498716    0.4789000307
H1897      H    0.8324072385    0.3791401514    0.4602819236
F1898      F    0.8259821736    0.3336984700    0.4675031590
C1899      C    0.5170032146    0.4881420256    1.1109924125
C1900      C    0.5274311163    0.5034737961    1.0934849578
C1901      C    0.5440472524    0.5217286333    1.1021241849
C1902      C    0.5500800929    0.5246873112    1.1269691258
C1903      C    0.5396496833    0.5093581490    1.1444765321
C1904      C    0.5230335473    0.4911033118    1.1358373049
F1905      F    0.5123218039    0.4757402819    1.1515294411
H1906      H    0.5040870414    0.4737880930    1.1052548248
H1907      H    0.5629937583    0.5390438521    1.1327066650
F1908      F    0.5547589958    0.5370916632    1.0864320488
C1909      C    0.5075322020    0.6385343351    1.0259217668
C1910      C    0.5277269690    0.6506317209    1.0159374514
C1911      C    0.5437407287    0.6365445882    1.0019591195
C1912      C    0.5399501309    0.6116067445    0.9980312957
C1913      C    0.5197577442    0.5995090229    1.0080184255
C1914      C    0.5037439845    0.6135961555    1.0219967574
F1915      F    0.4840122964    0.6032626382    1.0321315633
H1916      H    0.4946528784    0.6485913317    1.0368393401
H1917      H    0.5528318348    0.6015494120    0.9871165368
F1918      F    0.5634724168    0.6468781055    0.9918243136
C1919      C    0.3803141360    0.4946857137    0.9618159099
C1920      C    0.3951327598    0.4752700586    0.9688718969
C1921      C    0.3839970837    0.4520190684    0.9705018435
C1922      C    0.3593081252    0.4481443322    0.9653817874
C1923      C    0.3444891595    0.4675602755    0.9583294552
C1924      C    0.3556248356    0.4908112657    0.9566995086
F1925      F    0.3425827528    0.5102740550    0.9500535001
H1926      H    0.3880399407    0.5129642408    0.9602926133
H1927      H    0.3515819786    0.4298660932    0.9669087387
F1928      F    0.3970391665    0.4325562791    0.9771478519
C1929      C    0.4518676201    0.3481145625    0.9663345363
C1930      C    0.4698091813    0.3307342981    0.9709931972
C1931      C    0.4930081699    0.3394503522    0.9789120075
C1932      C    0.4982287201    0.3642484177    0.9820815529
C1933      C    0.4802885362    0.3816284139    0.9774195182
C1934      C    0.4570895475    0.3729123598    0.9695007079
F1935      F    0.4389965280    0.3884817851    0.9646846685
H1936      H    0.4336913700    0.3423138382    0.9601917692
H1937      H    0.5164063474    0.3700488738    0.9882209462
F1938      F    0.5111011895    0.3238809269    0.9837280469
C1939      C    0.2663425528    0.3980378928    0.9814287467
C1940      C    0.2772413059    0.4043006021    0.9592093306
C1941      C    0.2833306087    0.3851073493    0.9430506516
C1942      C    0.2788410362    0.3608057634    0.9486193483
C1943      C    0.2679457812    0.3545430944    0.9708398971
C1944      C    0.2618564785    0.3737363473    0.9869985760
F1945      F    0.2513673412    0.3691335513    1.0086159512
H1946      H    0.2613084813    0.4121760625    0.9945040008
H1947      H    0.2838786058    0.3466676341    0.9355452268
F1948      F    0.2938197460    0.3897101453    0.9214332764
C1949      C    0.3699040731    0.2462861635    0.9918953559
C1950      C    0.3531054426    0.2608984925    0.9793869423
C1951      C    0.3624304902    0.2781190539    0.9629976467
C1952      C    0.3872608390    0.2807688239    0.9591516733
C1953      C    0.4040593062    0.2661592588    0.9716625423
C1954      C    0.3947342586    0.2489386973    0.9880518379
F1955      F    0.4097261049    0.2343076606    1.0006785720
H1956      H    0.3636215051    0.2327392011    1.0047299706
H1957      H    0.3935432438    0.2943185502    0.9463195140
F1958      F    0.3474386440    0.2927500906    0.9503709126
C1959      C    0.2502225414    0.1331048369    1.0310796010
C1960      C    0.2371956202    0.1443395400    1.0119944885
C1961      C    0.2214667923    0.1294414977    0.9971399846
C1962      C    0.2187439363    0.1045441735    1.0009896909
C1963      C    0.2317732873    0.0933091265    1.0200721301
C1964      C    0.2475021153    0.1082071688    1.0349266340
F1965      F    0.2605682080    0.0987244898    1.0535566817
H1966      H    0.2625835540    0.1438072280    1.0430414828
H1967      H    0.2063853535    0.0938414384    0.9890251359
F1968      F    0.2084006995    0.1389241766    0.9785099369
C1969      C    0.1248615042    0.2380805512    1.0016483105
C1970      C    0.1435533153    0.2314423452    1.0181403718
C1971      C    0.1366696626    0.2203082062    1.0401020297
C1972      C    0.1123839170    0.2159349919    1.0455104833
C1973      C    0.0936924309    0.2225763193    1.0290203954
C1974      C    0.1005760835    0.2337104582    1.0070587375
F1975      F    0.0836754819    0.2405639271    0.9903873185
H1976      H    0.1292310441    0.2467208702    0.9844626625
H1977      H    0.1080147021    0.2072977943    1.0626981047
F1978      F    0.1535702642    0.2134547374    1.0567734487
C1979      C    0.2070468296    0.2042416013    1.1062963501
C1980      C    0.2232908652    0.2236467530    1.1015541753
C1981      C    0.2335140832    0.2367039621    1.1219311199
C1982      C    0.2279209959    0.2308308336    1.1459262033
C1983      C    0.2116745620    0.2114283796    1.1506681107
C1984      C    0.2014513441    0.1983711706    1.1302911661
F1985      F    0.1857475921    0.1795571424    1.1334097726
H1986      H    0.1986808032    0.1936150101    1.0912048958
H1987      H    0.2362846240    0.2414601226    1.1610173902
F1988      F    0.2492178351    0.2555179902    1.1188125134
C1989      C    0.6235675868    1.0399465973    0.5206640484
C1990      C    0.6142413089    1.0188839041    0.5083131109
C1991      C    0.6311046880    1.0025770051    0.4984301743
C1992      C    0.6560764901    1.0069086905    0.5006632248
C1993      C    0.6654024296    1.0279727156    0.5130107680
C1994      C    0.6485390505    1.0442796146    0.5228937047
F1995      F    0.6561289108    1.0648336403    0.5349674699
H1996      H    0.6113086132    1.0530838246    0.5286073097
H1997      H    0.6683351253    0.9937727951    0.4927165692
F1998      F    0.6235148276    0.9820229794    0.4863564090
C1999      C    0.5361801998    1.1217494099    0.5068713420
C2000      C    0.5333224327    1.1041920687    0.5251557479
C2001      C    0.5369359893    1.1119786471    0.5498039361
C2002      C    0.5431005697    1.1360546438    0.5560871215
C2003      C    0.5459617563    1.1536107786    0.5378028887
C2004      C    0.5423481998    1.1458242002    0.5131547004
F2005      F    0.5447705745    1.1616163744    0.4946531041
H2006      H    0.5335907670    1.1166536137    0.4875925136
H2007      H    0.5456934221    1.1411492336    0.5753661230
F2008      F    0.5345136146    1.0961864729    0.5683055324
C2009      C    0.5155884996    1.0040648708    0.6281021130
C2010      C    0.5236776317    1.0207247774    0.6105666590
C2011      C    0.5357119300    1.0421920066    0.6193258167
C2012      C    0.5395731362    1.0469682701    0.6443120687
C2013      C    0.5314810057    1.0303103720    0.6618472169
C2014      C    0.5194467073    1.0088431428    0.6530880591
F2015      F    0.5111913068    0.9920471045    0.6687986922
H2016      H    0.5062107481    0.9872431601    0.6222756456
H2017      H    0.5489478892    1.0637919893    0.6501382302
F2018      F    0.5439673305    1.0589880449    0.6036151836
C2019      C    0.4631954501    0.9783813369    0.3798094010
C2020      C    0.4861497948    0.9742844771    0.3907510613
C2021      C    0.5040729328    0.9640996539    0.3758048949
C2022      C    0.4994974309    0.9582291664    0.3511389349
C2023      C    0.4765424793    0.9623226394    0.3401984804
C2024      C    0.4586193412    0.9725074626    0.3551446468
F2025      F    0.4362096296    0.9769463421    0.3459363579
H2026      H    0.4487647015    0.9861992526    0.3905607757
H2027      H    0.5139275725    0.9504078638    0.3403887660
F2028      F    0.5264826445    0.9596607744    0.3850131838
C2029      C    0.3815607861    0.9946213039    0.4909814327
C2030      C    0.3989810673    0.9771048595    0.4850913647
C2031      C    0.3903745187    0.9542234660    0.4760171452
C2032      C    0.3656433887    0.9489044485    0.4729074451
C2033      C    0.3482234427    0.9664193212    0.4788007974
C2034      C    0.3568299913    0.9893007147    0.4878750170
F2035      F    0.3412165715    1.0069796471    0.4939054434
H2036      H    0.3872776328    1.0125410162    0.4980438544
H2037      H    0.3599268772    0.9309831645    0.4658483077
F2038      F    0.4059879384    0.9365445336    0.4699867188
C2039      C    0.3667761007    0.9528021764    0.2826331862
C2040      C    0.3595493394    0.9700909744    0.2652900479
C2041      C    0.3779910145    0.9821537167    0.2523609963
C2042      C    0.4024858854    0.9773323152    0.2564045574
C2043      C    0.4097126248    0.9600464848    0.2737499081
C2044      C    0.3912709498    0.9479837425    0.2866789597
F2045      F    0.3968148521    0.9311945094    0.3035717364
H2046      H    0.3532431234    0.9430122638    0.2930768486
H2047      H    0.4160188409    0.9871251953    0.2459631074
F2048      F    0.3724471121    0.9989429498    0.2354682195
C2049      C    0.2773417373    0.9493902731    0.3680735246
C2050      C    0.2723802039    0.9729117805    0.3596282339
C2051      C    0.2718798633    0.9920256318    0.3772667294
C2052      C    0.2760982841    0.9880529511    0.4021464167
C2053      C    0.2810561770    0.9645313225    0.4105918896
C2054      C    0.2815565176    0.9454174711    0.3929533941
F2055      F    0.2861894914    0.9224070040    0.3996775690
H2056      H    0.2779279305    0.9340417888    0.3551953627
H2057      H    0.2755084504    1.0034013141    0.4150247608
F2058      F    0.2672468895    1.0150360990    0.3705425545
C2059      C    0.2438791078    0.9974105773    0.1195403061
C2060      C    0.2396126176    1.0150547149    0.1379784700
C2061      C    0.2321325514    1.0382132477    0.1304075141
C2062      C    0.2290116969    1.0436766582    0.1057040022
C2063      C    0.2332815518    1.0260339864    0.0872661835
C2064      C    0.2407616180    1.0028754536    0.0948371393
F2065      F    0.2451864743    0.9850607467    0.0782148669
H2066      H    0.2496758599    0.9792773930    0.1244365094
H2067      H    0.2232183095    1.0618113083    0.1008081440
F2068      F    0.2277076951    1.0560279546    0.1470297866
C2069      C    0.1037923600    1.0043865595    0.2275017629
C2070      C    0.0973058375    1.0273519851    0.2186153758
C2071      C    0.1162556568    1.0443336062    0.2144575196
C2072      C    0.1405361186    1.0388463517    0.2188906803
C2073      C    0.1470222016    1.0158826829    0.2277802887
C2074      C    0.1280723823    0.9989010618    0.2319381448
F2075      F    0.1328980857    0.9765396083    0.2404384777
H2076      H    0.0898463425    0.9906625438    0.2310020261
H2077      H    0.1544816966    1.0525721241    0.2153936383
F2078      F    0.1114299534    1.0666950597    0.2059571868
C2079      C    0.2432390653    1.1134158001    0.2287605098
C2080      C    0.2257068527    1.0943616059    0.2275397879
C2081      C    0.2015615609    1.1004727254    0.2214988859
C2082      C    0.1950476276    1.1243620641    0.2168720547
C2083      C    0.2125788301    1.1434163196    0.2180962952
C2084      C    0.2367241219    1.1373052000    0.2241371971
F2085      F    0.2544968616    1.1545902225    0.2256474258
H2086      H    0.2621081822    1.1096416152    0.2333472975
H2087      H    0.1761775006    1.1281363103    0.2122887856
F2088      F    0.1837888212    1.0831877030    0.2199886573
C2089      C    0.0474144294    1.0147239253    1.1370464226
C2090      C    0.0308013726    1.0282619165    1.1507872960
C2091      C    0.0097046018    1.0362434250    1.1384426754
C2092      C    0.0052385772    1.0310664258    1.1136168422
C2093      C    0.0218530306    1.0175317906    1.0998754679
C2094      C    0.0429498015    1.0095502821    1.1122200886
F2095      F    0.0596783524    0.9964951223    1.1002532861
H2096      H    0.0639569154    1.0081571287    1.1457254939
H2097      H   -0.0113025122    1.0376365784    1.1049372701
F2098      F   -0.0070239491    1.0492985848    1.1504094779
C2099      C    0.1225386847    1.0381325966    1.0226217852
C2100      C    0.1144419402    1.0167036882    1.0100750381
C2101      C    0.1322564088    1.0004930313    1.0019203927
C2102      C    0.1569745579    1.0052635579    1.0059931984
C2103      C    0.1650712049    1.0266937259    1.0185365101
C2104      C    0.1472567362    1.0429043827    1.0266911555
F2105      F    0.1536467339    1.0637919692    1.0388380400
H2106      H    0.1095135215    1.0512131878    1.0292762449
H2107      H    0.1699996236    0.9921842263    0.9993353033
F2108      F    0.1258664111    0.9796054449    0.9897735082
C2109      C    0.0171026298    1.1467614790    1.0056671335
C2110      C    0.0291351224    1.1542850230    1.0276952640
C2111      C    0.0368475239    1.1359762661    1.0437418359
C2112      C    0.0328382971    1.1113276471    1.0382469081
C2113      C    0.0208029032    1.1038044396    1.0162209195
C2114      C    0.0130905017    1.1221131964    1.0001743475
F2115      F    0.0014497092    1.1162856790    0.9787406174
H2116      H    0.0108004995    1.1601821184    0.9926849584
H2117      H    0.0391375261    1.0979073441    1.0512312251
F2118      F    0.0484883164    1.1418037835    1.0651755661
C2119      C    0.0069291121    0.9733349129    0.8631098529
C2120      C   -0.0129667450    0.9765650580    0.8785834082
C2121      C   -0.0364346214    0.9755485039    0.8676317247
C2122      C   -0.0400623323    0.9715172612    0.8424988306
C2123      C   -0.0201667042    0.9682907578    0.8270251414
C2124      C    0.0033011722    0.9693073118    0.8379768250
F2125      F    0.0232229743    0.9663750109    0.8243158429
H2126      H    0.0253907699    0.9739610202    0.8706696909
H2127      H   -0.0585242192    0.9708947956    0.8349388588
F2128      F   -0.0563564235    0.9784808049    0.8812927067
C2129      C   -0.0381456418    0.8768784772    0.9485699301
C2130      C   -0.0223361973    0.8838289310    0.9682711146
C2131      C   -0.0124179752    0.8651206548    0.9825158130
C2132      C   -0.0178915633    0.8406321778    0.9774991156
C2133      C   -0.0337034677    0.8336821060    0.9578005707
C2134      C   -0.0436216899    0.8523903822    0.9435558723
F2135      F   -0.0589033001    0.8471193404    0.9243928311
H2136      H   -0.0462642440    0.8906234145    0.9370394528
H2137      H   -0.0097754211    0.8268876226    0.9890322325
F2138      F    0.0028636350    0.8703916966    1.0016788542
C2139      C   -0.1488674863    0.9667062014    0.9927851092
C2140      C   -0.1599603271    0.9680287135    0.9693111505
C2141      C   -0.1448975280    0.9736145325    0.9495070282
C2142      C   -0.1199767951    0.9777093337    0.9527739444
C2143      C   -0.1088848139    0.9763903602    0.9762479693
C2144      C   -0.1239476130    0.9708045413    0.9960520917
F2145      F   -0.1146065379    0.9692268338    1.0190617994
H2146      H   -0.1596998692    0.9624583165    1.0086496246
H2147      H   -0.1091452718    0.9819607573    0.9369094953
F2148      F   -0.1542386031    0.9751922400    0.9264973204
C2149      C    0.7624734254   -0.0421890481    0.8606014529
C2150      C    0.7679361792   -0.0187254477    0.8519815981
C2151      C    0.7761402048   -0.0008992195    0.8693878774
C2152      C    0.7788214897   -0.0060496372    0.8942105487
C2153      C    0.7733554381   -0.0295117701    0.9028306910
C2154      C    0.7651514125   -0.0473379983    0.8854244117
F2155      F    0.7595718384   -0.0702143352    0.8923250046
H2156      H    0.7560823293   -0.0565682793    0.8479050451
H2157      H    0.7852092880    0.0083310615    0.9069072441
F2158      F    0.7817197790    0.0219771173    0.8624872845
C2159      C    0.8075814905   -0.0960719789    0.7856614505
C2160      C    0.7851693973   -0.0925793250    0.7733621601
C2161      C    0.7700757282   -0.1132950996    0.7687635246
C2162      C    0.7768463018   -0.1364315311    0.7760059692
C2163      C    0.7992594817   -0.1399245875    0.7883017844
C2164      C    0.8143531507   -0.1192088129    0.7929004199
F2165      F    0.8360823661   -0.1211473452    0.8045946919
H2166      H    0.8198656230   -0.0806731066    0.7896364456
H2167      H    0.7645632560   -0.1518308059    0.7720274989
F2168      F    0.7483465128   -0.1113565673    0.7570692526
C2169      C    0.8971493687   -0.0381466544    0.7764583922
C2170      C    0.9142089388   -0.0293174704    0.7597346602
C2171      C    0.9054496174   -0.0150333387    0.7403339007
C2172      C    0.8809137551   -0.0097191715    0.7375961527
C2173      C    0.8638540910   -0.0185511682    0.7543174708
C2174      C    0.8726134125   -0.0328352999    0.7737182303
F2175      F    0.8573441600   -0.0419181683    0.7904438641
H2176      H    0.9029961533   -0.0492444898    0.7917317725
H2177      H    0.8750668765    0.0013758512    0.7223203585
F2178      F    0.9207188699   -0.0059504703    0.7236082669
C2179      C    0.7215456141    0.0377617119    0.6220756852
C2180      C    0.7390107296    0.0212230461    0.6304051199
C2181      C    0.7523577710    0.0086820997    0.6125237683
C2182      C    0.7485988393    0.0123355612    0.5875212970
C2183      C    0.7311315992    0.0288712179    0.5791919851
C2184      C    0.7177845578    0.0414121643    0.5970733367
F2185      F    0.7007524223    0.0575358358    0.5904717618
H2186      H    0.7107830567    0.0478785399    0.6351411312
H2187      H    0.7593592721    0.0022157241    0.5744559737
F2188      F    0.7693899065   -0.0074415718    0.6191253432
C2189      C    0.7115219813    0.1129034019    0.7016250008
C2190      C    0.7314793765    0.1079960392    0.7172731235
C2191      C    0.7453475335    0.1280735063    0.7266990642
C2192      C    0.7397278319    0.1519383133    0.7209069817
C2193      C    0.7197730051    0.1568453181    0.7052563241
C2194      C    0.7059048481    0.1367678509    0.6958303834
F2195      F    0.6865278750    0.1400584477    0.6807292744
H2196      H    0.7002631700    0.0980437368    0.6938827325
H2197      H    0.7509892116    0.1667976204    0.7286467151
F2198      F    0.7647245067    0.1247829096    0.7418001732
C2199      C    0.6362360204    0.0206672764    0.7097121824
C2200      C    0.6484453938    0.0230650490    0.7326558830
C2201      C    0.6346174433    0.0299318988    0.7530469652
C2202      C    0.6098216641    0.0342349363    0.7508439277
C2203      C    0.5976133306    0.0318406828    0.7279000678
C2204      C    0.6114412810    0.0249738330    0.7075089857
F2205      F    0.6009873331    0.0223186720    0.6849541614
H2206      H    0.6460940464    0.0154120852    0.6934297201
H2207      H    0.5999646780    0.0394936467    0.7671262307
F2208      F    0.6450713913    0.0325870599    0.7756017894
loop_
_geom_bond_atom_site_label_1
_geom_bond_atom_site_label_2
_geom_bond_distance
_geom_bond_site_symmetry_2
_ccdc_geom_bond_type
