data_spn_v1-3c_tricenter_v2-6c_Zr_1_Ch_1-1B_2F_Chnobond
_audit_creation_date              2024-10-15
_audit_creation_method            'tobacco_3.0'
_symmetry_space_group_name_H-M    'P1'
_symmetry_Int_Tables_number       1
_symmetry_cell_setting            triclinic
loop_
_symmetry_equiv_pos_as_xyz
  x,y,z
_cell_length_a                    54.81384969789074
_cell_length_b                    54.671830589190606
_cell_length_c                    54.27253411739424
_cell_angle_alpha                 91.10687717340123
_cell_angle_beta                  91.28325401485326
_cell_angle_gamma                 91.11701069020717
loop_
_atom_site_label
_atom_site_type_symbol
_atom_site_fract_x
_atom_site_fract_y
_atom_site_fract_z
Zr1       Zr    0.7803120653    0.7805871815   -0.0143053282
O2         O    0.8036546781    0.8065674326    0.0042722110
O3         O    0.7841848340    0.7848538260   -0.0548813148
O4         O    0.8183249946    0.7682519569   -0.0204993764
O5         O    0.7289608551    0.8194671616   -0.0110828308
O6         O    0.8192245107    0.7291602641   -0.0116585403
O7         O    0.7678679376    0.8187362746   -0.0201814558
O8         O    0.7581518228    0.7588636363   -0.0731581576
O9         O    0.7737905779    0.7443687275   -0.0271202392
O10        O    0.7440849059    0.7740892831   -0.0269335671
O11        O    0.7842832017    0.7545384122    0.0135424002
O12        O    0.7545781813    0.7842578138    0.0137324948
Zr13      Zr    0.7196927052    0.7194127903    0.0143044694
Zr14      Zr    0.7817415827    0.7182450625   -0.0002016613
Zr15      Zr    0.7182596099    0.7817549304    0.0002014467
Zr16      Zr    0.7387889257    0.7391317500   -0.0434538936
O17        O    0.7104836243    0.8056459363    0.0298706553
O18        O    0.7547987357    0.7114764391   -0.0653814121
O19        O    0.7157173394    0.7454627346   -0.0135460374
O20        O    0.7454230114    0.7157421791   -0.0137327095
O21        O    0.7559162867    0.7259107099    0.0269333524
O22        O    0.7262106147    0.7556312654    0.0271200245
C23        C    0.7738879994    0.7746701944   -0.0722496858
C24        C    0.7482089194    0.8279832012   -0.0176412502
C25        C    0.8276173202    0.7485382644   -0.0181463893
O26        O    0.7893985093    0.6931088763   -0.0290050610
O27        O    0.7710403376    0.6805328313    0.0110826161
O28        O    0.7321332550    0.6812637184    0.0201812411
C29        C    0.7517886953    0.6720168129    0.0176416796
O30        O    0.7878215954    0.7885876168    0.0521788224
Zr31      Zr    0.7612122669    0.7608682430    0.0434536789
O32        O    0.7158163586    0.7151461669    0.0548811001
O33        O    0.8049045309    0.7074412290    0.0292633529
O34        O    0.7881939366    0.7422445471    0.0638384202
O35        O    0.7470915775    0.7886017153    0.0668116794
O36        O    0.7418493699    0.7411363566    0.0731579430
C37        C    0.7261131932    0.7253297985    0.0722494711
O38        O    0.6940164590    0.6952843102   -0.0038164137
O39        O    0.6924515347    0.7901631209   -0.0279086135
O40        O    0.6816761980    0.7317480361    0.0204991617
O41        O    0.6807766820    0.7708397289    0.0116583256
O42        O    0.7116988583    0.7564727463   -0.0648451565
O43        O    0.7094107063    0.7153725947   -0.0546809386
C44        C    0.6723838724    0.7514617286    0.0181461746
H45        H    0.7404945256    0.7856112125   -0.0402150692
H46        H    0.7430347391    0.6991781938   -0.0210800807
H47        H    0.7148349947    0.7590819380    0.0405005104
H48        H    0.8009105957    0.7569899906    0.0206556300
H49        H    0.7467726740    0.7124402478   -0.0818652912
H50        H    0.8150578373    0.6943581005    0.0222329728
H51        H    0.7861747288    0.7470107833    0.0813631171
H52        H    0.7140936246    0.7512221672   -0.0821975172
H53        H    0.6830756094    0.8039889566   -0.0211891617
H54        H    0.6964995197    0.8153799642    0.0240807947
H55        H    0.7536320338    0.7854361885    0.0835964909
H56        H    0.7147550808    0.6983467834   -0.0525937615
H57        H    0.6851970530    0.7051950130   -0.0160782431
H58        H    0.8140068522    0.8136543152   -0.0086242781
H59        H    0.7935989228    0.7865626425    0.0694201177
H60        H    0.7015572823    0.7973709624   -0.0416122010
H61        H    0.7033541222    0.6837095493   -0.0139762398
H62        H    0.7996187079    0.7018501058   -0.0409147466
H63        H    0.7717908220    0.7169944700   -0.0681380245
H64        H    0.7293673207    0.7854400376    0.0681543887
H65        H    0.8166347002    0.7210904252    0.0328454290
H66        H    0.8150472586    0.7972811031    0.0147481050
C67        C    0.7228678823    0.5743905681    0.0352540845
N68        N    0.6998803653    0.5624956359    0.0229311969
C69        C    0.6885865297    0.5390588648    0.0335625985
N70        N    0.7002802111    0.5275170258    0.0565168875
C71        C    0.7232677280    0.5394119581    0.0688397750
N72        N    0.7345615636    0.5628487292    0.0582083735
Zr73      Zr   -0.0104191052    0.4725142340    0.4680399728
O74        O    0.0056375960    0.4498477715    0.4410429813
O75        O   -0.0509186278    0.4674356862    0.4652095223
O76        O   -0.0159967916    0.4341183441    0.4803767323
O77        O   -0.0097242374    0.5243836406    0.4292178581
O78        O   -0.0041811836    0.4332083258    0.5193637076
O79        O   -0.0190994373    0.4850849193    0.4299825652
O80        O   -0.0666470400    0.4928092901    0.4922265380
O81        O   -0.0201589921    0.4784131611    0.5049910920
O82        O   -0.0219860184    0.5084187794    0.4753236361
O83        O    0.0191259681    0.4691890776    0.4931855443
O84        O    0.0173024094    0.4991941377    0.4635191180
Zr85      Zr    0.0233757258    0.5337414670    0.5289934447
Zr86      Zr    0.0084286323    0.4710681211    0.5302149620
Zr87      Zr    0.0045286636    0.5351911877    0.4668184386
Zr88      Zr   -0.0355028668    0.5129857032    0.5111330917
O89        O    0.0320662891    0.5440528950    0.4417589908
O90        O   -0.0551813088    0.4960736880    0.5396296754
O91        O   -0.0061721399    0.5370707895    0.5038468267
O92        O   -0.0043451135    0.5070651711    0.5335142826
O93        O    0.0349433143    0.4978405294    0.5217097645
O94        O    0.0331162879    0.5278461478    0.4920423086
C95        C   -0.0671725252    0.4771663659    0.4761713989
C96        C   -0.0170967829    0.5049421310    0.4207425471
C97        C   -0.0122191450    0.4247317594    0.5000457460
O98        O   -0.0181533453    0.4623431950    0.5564959399
O99        O    0.0226815333    0.4818756682    0.5678155425
O100       O    0.0320567332    0.5211743895    0.5670508354
C101       C    0.0300547541    0.5013207856    0.5762908366
O102       O    0.0546014514    0.4670458992    0.4574906067
Zr103     Zr    0.0484601627    0.4932736056    0.4859003089
O104       O    0.0638759237    0.5388236226    0.5318238783
O105       O    0.0381545913    0.4486519127    0.5398171544
O106       O    0.0697821556    0.4666986816    0.5036716454
O107       O    0.0695256238    0.5083347900    0.4572577314
O108       O    0.0796043359    0.5134500187    0.5048068626
C109       C    0.0801298211    0.5290929429    0.5208620017
O110       O    0.0076506255    0.5587750712    0.5541293998
O111       O   -0.0236388866    0.5602841876    0.4595967415
O112       O    0.0289540875    0.5721409648    0.5166566683
O113       O    0.0171384795    0.5730509831    0.4776696931
O114       O   -0.0577176342    0.5396299438    0.4946897554
O115       O   -0.0443992948    0.5419425866    0.5356732020
C116       C    0.0251764409    0.5815275494    0.4969876546
H117       H   -0.0359868674    0.5116996129    0.4642510049
H118       H   -0.0102761075    0.5091221465    0.5504633269
H119       H    0.0462016154    0.5396825731    0.4881689137
H120       H    0.0257791342    0.4527457789    0.4903279929
H121       H   -0.0714656852    0.5036321047    0.5393290026
H122       H    0.0321216379    0.4381652712    0.5531551890
H123       H    0.0867562659    0.4692861088    0.4982494119
H124       H   -0.0744873473    0.5366676753    0.5005898710
H125       H   -0.0179806865    0.5699870479    0.4455170188
H126       H    0.0257304908    0.5579708851    0.4322907417
H127       H    0.0862979344    0.5022598599    0.4597735019
H128       H   -0.0410522375    0.5365261756    0.5526794104
H129       H   -0.0051562172    0.5673194198    0.5446808553
H130       H   -0.0077891112    0.4391264023    0.4343077882
H131       H    0.0717436834    0.4617580858    0.4588483953
H132       H   -0.0378591667    0.5507893205    0.4527793166
H133       H   -0.0015864186    0.5490225696    0.5660717090
H134       H   -0.0307333997    0.4517955906    0.5480615467
H135       H   -0.0585329650    0.4789883168    0.5340477459
H136       H    0.0713015860    0.5261283250    0.4605273121
H137       H    0.0404877992    0.4370920471    0.5258650408
H138       H    0.0166004590    0.4386733348    0.4499090021
Zr139     Zr   -0.0293367412    0.2695008149    0.2779313096
O140       O   -0.0551671951    0.2525986536    0.3009152723
O141       O   -0.0326483085    0.3100426426    0.2817206547
O142       O   -0.0161434104    0.2770220283    0.3166144941
O143       O   -0.0692002102    0.2649128298    0.2251532891
O144       O    0.0226616667    0.2674662456    0.3184404155
O145       O   -0.0674968637    0.2755986137    0.2644672536
O146       O   -0.0068683411    0.3265307520    0.2560193817
O147       O    0.0069162100    0.2811884134    0.2721814625
O148       O   -0.0233160261    0.2803508740    0.2414807527
O149       O   -0.0038791933    0.2414776833    0.2825665331
O150       O   -0.0341103388    0.2406367496    0.2518665104
Zr151     Zr    0.0298295901    0.2372194808    0.2181403559
Zr152     Zr    0.0325480944    0.2542567938    0.2808381790
Zr153     Zr   -0.0320553521    0.2524627096    0.2152298721
Zr154     Zr    0.0117833089    0.2957963284    0.2369373143
O155       O   -0.0566635895    0.2231707817    0.2068343786
O156       O    0.0401449070    0.3176759690    0.2537424947
O157       O    0.0043708450    0.2652452143    0.2135008310
O158       O    0.0346030811    0.2660827537    0.2442015408
O159       O    0.0238087684    0.2263686293    0.2545872985
O160       O   -0.0064234677    0.2255310899    0.2238865887
C161       C   -0.0223314710    0.3266332509    0.2715469938
C162       C   -0.0771649137    0.2724272106    0.2443943071
C163       C    0.0036479742    0.2746722548    0.3264625368
O164       O    0.0583769692    0.2826579741    0.2891429561
O165       O    0.0696929525    0.2418066736    0.2709147620
O166       O    0.0679896060    0.2311208896    0.2316007976
C167       C    0.0776575493    0.2342915004    0.2516701297
O168       O   -0.0385794638    0.2039794924    0.2853683706
Zr169     Zr   -0.0112905666    0.2109231749    0.2591307368
O170       O    0.0331410508    0.1966768607    0.2143473964
O171       O    0.0431567032    0.2257687530    0.3045052456
O172       O    0.0073847764    0.1914509895    0.2868325891
O173       O   -0.0397226685    0.1877058362    0.2442328506
O174       O    0.0073610834    0.1801887513    0.2400486694
C175       C    0.0228242132    0.1800862524    0.2245210573
O176       O    0.0537572206    0.2536069163    0.1927561154
O177       O   -0.0403573964    0.2794420651    0.1889474999
O178       O    0.0166361527    0.2296974750    0.1794535570
O179       O   -0.0221689244    0.2392532578    0.1776276356
O180       O   -0.0055938759    0.3162364237    0.2091553211
O181       O    0.0351215187    0.3051881407    0.2078088344
C182       C   -0.0031552320    0.2320472486    0.1696055143
H183       H   -0.0345927057    0.2936245038    0.2375774625
H184       H    0.0512264482    0.2729294324    0.2421713510
H185       H   -0.0103772876    0.2118305797    0.2123225927
H186       H   -0.0061414036    0.2351788975    0.2993096001
H187       H    0.0393741782    0.3337185375    0.2456030367
H188       H    0.0565544811    0.2329108486    0.3150629230
H189       H    0.0022187463    0.1740642373    0.2846916693
H190       H    0.0000589203    0.3334580454    0.2116870133
H191       H   -0.0544734472    0.2726575076    0.1791575873
H192       H   -0.0665259011    0.2285234267    0.1924778378
H193       H   -0.0367929943    0.1712548301    0.2509231698
H194       H    0.0521594582    0.3029892434    0.2136059675
H195       H    0.0439603163    0.2656104090    0.1836088904
H196       H   -0.0617504404    0.2659948588    0.3111998092
H197       H   -0.0368119911    0.1870663771    0.2912614583
H198       H   -0.0470690535    0.2935887290    0.1979696718
H199       H    0.0657014383    0.2638527033    0.2024528823
H200       H    0.0501206203    0.2951033090    0.2992561364
H201       H    0.0350430087    0.3212563480    0.2707767614
H202       H   -0.0369546773    0.1855471234    0.2264031853
H203       H    0.0297071565    0.2229999755    0.3160380477
H204       H   -0.0459031134    0.2424916752    0.3126462069
C205       C    0.9653965453    0.4851266941    0.3199201537
N206       N    0.9767849226    0.4622798827    0.3082084068
C207       C    0.9648159285    0.4500659657    0.2850349722
N208       N    0.9414585572    0.4606988601    0.2735732845
C209       C    0.9300701799    0.4835456715    0.2852850315
N210       N    0.9420391739    0.4957595885    0.3084584661
C211       C    0.9839472149    0.3226978862    0.4706056205
N212       N    0.9951109104    0.3114824411    0.4472871332
C213       C    0.9836778569    0.2880908817    0.4352731215
N214       N    0.9610811080    0.2759147675    0.4465775970
C215       C    0.9499174126    0.2871302126    0.4698960843
N216       N    0.9613504660    0.3105217719    0.4819100960
Zr217     Zr    0.4892348583    0.2810032299    0.7797566278
O218       O    0.5064830826    0.3043180115    0.8067729947
O219       O    0.4488759416    0.2849648799    0.7821313306
O220       O    0.4836529012    0.3191521940    0.7670944591
O221       O    0.4907007245    0.2294372330    0.8189535874
O222       O    0.4941319820    0.3201090975    0.7282128806
O223       O    0.4817308442    0.2684669522    0.8178211068
O224       O    0.4319254598    0.2589520368    0.7551169466
O225       O    0.4781463375    0.2745606174    0.7427338278
O226       O    0.4770143201    0.2447206090    0.7725970209
O227       O    0.5179556079    0.2849744464    0.7548885074
O228       O    0.5168270299    0.2551350861    0.7847507029
Zr229     Zr    0.5202518553    0.2202797910    0.7195577999
Zr230     Zr    0.5059510963    0.2825242439    0.7177498053
Zr231     Zr    0.5035362536    0.2187551883    0.7815646712
Zr232     Zr    0.4622018564    0.2395122529    0.7366677419
O233       O    0.5318531887    0.2108501808    0.8069790304
O234       O    0.4417167899    0.2556631815    0.7078417795
O235       O    0.4915283026    0.2163043377    0.7444269667
O236       O    0.4926603200    0.2461443461    0.7145637736
O237       O    0.5324730298    0.2565588233    0.7267174555
O238       O    0.5313410124    0.2267188149    0.7565806486
C239       C    0.4321291198    0.2746975355    0.7710638527
C240       C    0.4838344794    0.2487335756    0.8272210684
C241       C    0.4868543431    0.3285010878    0.7473945640
O242       O    0.4785463013    0.2903103839    0.6911244493
O243       O    0.5187866253    0.2718421993    0.6803608890
O244       O    0.5277565056    0.2328124800    0.6814933697
C245       C    0.5256535066    0.2525422679    0.6720934568
O246       O    0.5547033176    0.2883750141    0.7909485215
Zr247     Zr    0.5472854934    0.2617671794    0.7626467346
O248       O    0.5606114083    0.2163145524    0.7171831458
O249       O    0.5356025518    0.3057051804    0.7083003522
O250       O    0.5682931840    0.2888110499    0.7449096838
O251       O    0.5691835900    0.2475071048    0.7916204623
O252       O    0.5775618901    0.2423273955    0.7441975299
C253       C    0.5773582300    0.2265818967    0.7282506237
O254       O    0.5033736134    0.1946207908    0.6944227247
O255       O    0.4753316399    0.1929238375    0.7886675468
O256       O    0.5258344487    0.1821272382    0.7322200173
O257       O    0.5153553678    0.1811703348    0.7711015958
O258       O    0.4402543187    0.2123642812    0.7530675852
O259       O    0.4521318066    0.2101261452    0.7122267352
C260       C    0.5226330068    0.1727783444    0.7519199124
H261       H    0.4633560135    0.2411274580    0.7835496391
H262       H    0.4861174109    0.2437968818    0.6975621562
H263       H    0.5444339248    0.2152782768    0.7606727232
H264       H    0.5248920091    0.3016254816    0.7577032221
H265       H    0.4253536786    0.2476495702    0.7080249003
H266       H    0.5292215785    0.3159248419    0.6948235778
H267       H    0.5854322165    0.2867400453    0.7505280107
H268       H    0.4233073465    0.2148123743    0.7469707902
H269       H    0.4813721021    0.1834828512    0.8028769403
H270       H    0.5256892029    0.1968234666    0.8164796726
H271       H    0.5859416450    0.2540347453    0.7892368675
H272       H    0.4549508155    0.2155122434    0.6952132094
H273       H    0.4907951957    0.1857858005    0.7037993682
H274       H    0.4934038356    0.3147114565    0.8132967090
H275       H    0.5718628214    0.2941343950    0.7897325049
H276       H    0.4614478256    0.2020690934    0.7952736787
H277       H    0.4938276938    0.2040265179    0.6823137639
H278       H    0.4663709328    0.3005662670    0.6993578688
H279       H    0.4387464791    0.2726951809    0.7132730848
H280       H    0.5706499414    0.2297395872    0.7884906386
H281       H    0.5385478233    0.3174325520    0.7222014301
H282       H    0.5172661892    0.3157355482    0.7979417794
Zr283     Zr    0.2867389671    0.4893049684    0.7723048574
O284       O    0.3130261471    0.5067455195    0.7962374015
O285       O    0.2902461274    0.4488433279    0.7753884717
O286       O    0.2743968867    0.4825017118    0.8105475621
O287       O    0.3254635788    0.4929835148    0.7205348045
O288       O    0.2355925855    0.4919689282    0.8116419438
O289       O    0.3246374535    0.4830649341    0.7596189210
O290       O    0.2639496843    0.4317635418    0.7487466243
O291       O    0.2503832931    0.4773852076    0.7654687309
O292       O    0.2799603392    0.4777163212    0.7354854125
O293       O    0.2612955290    0.5173404432    0.7768833041
O294       O    0.2908714895    0.5176749615    0.7469007130
Zr295     Zr    0.2261747733    0.5202214337    0.7117138880
Zr296     Zr    0.2248552468    0.5044076489    0.7740451869
Zr297     Zr    0.2880585201    0.5051194749    0.7099699604
Zr298     Zr    0.2447951195    0.4620657185    0.7298106806
O299       O    0.3124117631    0.5343295550    0.7027202820
O300       O    0.2168481232    0.4404222909    0.7455287000
O301       O    0.2516193234    0.4921832759    0.7071311159
O302       O    0.2220422773    0.4918521623    0.7371144343
O303       O    0.2329534277    0.5318108026    0.7485297349
O304       O    0.2625304737    0.5321419162    0.7185464164
C305       C    0.2797528206    0.4320168664    0.7646447985
C306       C    0.3338666937    0.4858728354    0.7398270926
C307       C    0.2548052585    0.4849815628    0.8199775652
O308       O    0.1992765526    0.4760826883    0.7811925096
O309       O    0.1874501880    0.5165436089    0.7634803428
O310       O    0.1882763134    0.5264621896    0.7243962263
C311       C    0.1790470997    0.5236550099    0.7441844567
O312       O    0.2959626197    0.5550110010    0.7812336166
Zr313     Zr    0.2681186474    0.5474614052    0.7542044667
O314       O    0.2226676394    0.5606837958    0.7086266756
O315       O    0.2146745718    0.5333309357    0.7980240748
O316       O    0.2499808635    0.5674209973    0.7818544680
O317       O    0.2961735870    0.5704804835    0.7404221840
O318       O    0.2489640825    0.5777635819    0.7352685230
C319       C    0.2331609462    0.5775102574    0.7193703488
O320       O    0.2017377988    0.5032545784    0.6854349642
O321       O    0.2958713049    0.4776460969    0.6833493013
O322       O    0.2385168802    0.5270254120    0.6734675852
O323       O    0.2773211814    0.5175581955    0.6723732035
O324       O    0.2616353083    0.4411323094    0.7020310490
O325       O    0.2208475150    0.4520235625    0.6999353643
C326       C    0.2581085083    0.5245455609    0.6640375821
H327       H    0.2911932571    0.4644006871    0.7315897706
H328       H    0.2053890264    0.4849107778    0.7345575862
H329       H    0.2661979508    0.5456292871    0.7073362775
H330       H    0.2639020608    0.5239770257    0.7938093983
H331       H    0.2174881687    0.4242199167    0.7370929243
H332       H    0.2015202536    0.5263523995    0.8081312490
H333       H    0.2550539245    0.5847845442    0.7801717097
H334       H    0.2560832999    0.4239400310    0.7040964445
H335       H    0.3097616743    0.4842844939    0.6740202886
H336       H    0.3219823519    0.5287255084    0.6884868000
H337       H    0.2933415328    0.5870558188    0.7473650422
H338       H    0.2039232256    0.4542816783    0.7053748336
H339       H    0.2113738358    0.4911011966    0.6762826766
H340       H    0.3198705527    0.4935714414    0.8064225586
H341       H    0.2942746443    0.5720365728    0.7874153243
H342       H    0.3028190212    0.4636970252    0.6922600226
H343       H    0.1900275587    0.4931597149    0.6946550624
H344       H    0.2077882373    0.4638616485    0.7912642228
H345       H    0.2223289979    0.4371933873    0.7626218049
H346       H    0.2930141418    0.5722794412    0.7225609588
H347       H    0.2283693418    0.5363707207    0.8099336938
H348       H    0.3039841069    0.5170547448    0.8079503937
C349       C    0.2919502410    0.3285407611    0.7732357891
N350       N    0.2799074528    0.3171130010    0.7957699551
C351       C    0.2907994569    0.2941943751    0.8074556585
N352       N    0.3137342492    0.2827035092    0.7966071958
C353       C    0.3257770374    0.2941312692    0.7740730298
N354       N    0.3148850333    0.3170498952    0.7623873264
C355       C    0.4394518432    0.4723021751    0.7684542367
N356       N    0.4503884620    0.4492086635    0.7567667987
C357       C    0.4728716651    0.4374888132    0.7688698286
N358       N    0.4844182495    0.4488624745    0.7926602966
C359       C    0.4734816307    0.4719559861    0.8043477345
N360       N    0.4509984275    0.4836758364    0.7922447046
Zr361     Zr    0.2768510614    0.7754433225    0.4643231463
O362       O    0.2597406027    0.7980636234    0.4381048731
O363       O    0.3172556319    0.7796283839    0.4610709948
O364       O    0.2839643849    0.8139156348    0.4775245885
O365       O    0.2727950473    0.7230036595    0.4242450435
O366       O    0.2744322116    0.8156431232    0.5166855603
O367       O    0.2830531415    0.7621304761    0.4258476583
O368       O    0.3339808593    0.7543071456    0.4872472689
O369       O    0.2885879604    0.7698750503    0.5009904311
O370       O    0.2880519516    0.7393875148    0.4705677667
O371       O    0.2488600892    0.7797591415    0.4899442407
O372       O    0.2483206877    0.7492722526    0.4595226663
Zr373     Zr    0.2452895090    0.7157938872    0.5242176887
Zr374     Zr    0.2616447547    0.7781932024    0.5267755549
Zr375     Zr    0.2604950622    0.7130404122    0.4617651837
Zr376     Zr    0.3035247906    0.7350554549    0.5060753094
O377       O    0.2313467200    0.7043911262    0.4368651810
O378       O    0.3251942053    0.7519738796    0.5347155001
O379       O    0.2732831204    0.7114738264    0.4985954079
O380       O    0.2738191292    0.7419613620    0.5290180723
O381       O    0.2340878654    0.7518460998    0.5179729719
O382       O    0.2335518566    0.7213585643    0.4875503075
C383       C    0.3339161431    0.7697109519    0.4715722804
C384       C    0.2800902297    0.7421734805    0.4161491215
C385       C    0.2815292149    0.8236719225    0.4974710425
O386       O    0.2899060192    0.7867436054    0.5529063882
O387       O    0.2493447696    0.7682299551    0.5642956951
O388       O    0.2390866754    0.7291031385    0.5626930803
C389       C    0.2420488338    0.7490565390    0.5723915207
O390       O    0.2114051925    0.7821313355    0.4547882445
Zr391     Zr    0.2186150263    0.7561781597    0.4824654292
O392       O    0.2048841851    0.7116052307    0.5274697438
O393       O    0.2329873958    0.8013845965    0.5373274984
O394       O    0.1989147031    0.7834715821    0.5011734500
O395       O    0.1955915165    0.7411383833    0.4537434385
O396       O    0.1881589577    0.7369264690    0.5012934697
C397       C    0.1882236738    0.7215226627    0.5169684582
O398       O    0.2619101205    0.6907854436    0.5485216746
O399       O    0.2876753088    0.6872387714    0.4535485909
O400       O    0.2381754320    0.6773179798    0.5110161501
O401       O    0.2477076054    0.6755904914    0.4718551783
O402       O    0.3241921888    0.7076932064    0.4886812610
O403       O    0.3132045615    0.7062576061    0.5297794859
C404       C    0.2406106020    0.6675616921    0.4910696961
H405       H    0.3013282497    0.7356488737    0.4592277676
H406       H    0.2806786483    0.7400254323    0.5458330878
H407       H    0.2200006039    0.7097372669    0.4835638625
H408       H    0.2424035450    0.7963072751    0.4875807559
H409       H    0.3412815506    0.7440648148    0.5340094326
H410       H    0.2400109527    0.8119422172    0.5508387706
H411       H    0.1815887891    0.7811621921    0.4959180351
H412       H    0.3413496051    0.7103888500    0.4944264228
H413       H    0.2810002043    0.6774465166    0.4393099597
H414       H    0.2368288134    0.6901963850    0.4269716413
H415       H    0.1791126513    0.7476059661    0.4566343284
H416       H    0.3109600522    0.7119943656    0.5469604032
H417       H    0.2739738179    0.6818301615    0.5386923529
H418       H    0.2729960913    0.8084077100    0.4314529005
H419       H    0.1944729091    0.7878024406    0.4565070616
H420       H    0.3016923425    0.6963379630    0.4467735790
H421       H    0.2720380572    0.7005207426    0.5605762127
H422       H    0.3022138213    0.7969069658    0.5445627288
H423       H    0.3285888376    0.7689136328    0.5295088374
H424       H    0.1936221380    0.7234232851    0.4565995586
H425       H    0.2301002230    0.8127947451    0.5236934872
H426       H    0.2495421376    0.8096026001    0.4473914478
Zr427     Zr    0.5358250862    0.7201809577    0.2103147493
O428       O    0.5590440576    0.7368815717    0.1845837775
O429       O    0.5391395311    0.6796247013    0.2067291834
O430       O    0.5739202559    0.7141364476    0.2239819333
O431       O    0.4840012898    0.7220482913    0.1695513288
O432       O    0.5754530619    0.7249947252    0.2632520128
O433       O    0.5227989566    0.7124853664    0.1716005361
O434       O    0.5132344880    0.6632626079    0.2323841777
O435       O    0.5296326207    0.7095015347    0.2467830969
O436       O    0.4995358977    0.7085290592    0.2159456861
O437       O    0.5404883791    0.7491580835    0.2362630601
O438       O    0.5103923652    0.7481890570    0.2054267811
Zr439     Zr    0.4763901476    0.7527485251    0.2696710025
Zr440     Zr    0.5382646108    0.7375020113    0.2729411346
Zr441     Zr    0.4739470533    0.7354281621    0.2070444780
Zr442     Zr    0.4945061072    0.6940864601    0.2512354931
O443       O    0.4662178490    0.7637065242    0.1823116616
O444       O    0.5106136218    0.6735723812    0.2798959333
O445       O    0.4717225759    0.7237686410    0.2437214207
O446       O    0.5018192990    0.7247411165    0.2745588315
O447       O    0.5126757665    0.7644011143    0.2640399264
O448       O    0.4825790434    0.7634286388    0.2332025157
C449       C    0.5287669810    0.6630848643    0.2169280424
C450       C    0.5030507592    0.7147993871    0.1616538942
C451       C    0.5835043880    0.7173927219    0.2440844449
O452       O    0.5459021593    0.7101514916    0.2989117781
O453       O    0.5282103743    0.7508818822    0.3104342837
O454       O    0.4894127076    0.7604448070    0.3083850764
C455       C    0.5091573353    0.7581314770    0.3183315791
O456       O    0.5440458234    0.7856247970    0.2015108975
Zr457     Zr    0.5177055569    0.7788437133    0.2287501194
O458       O    0.4730721330    0.7933054722    0.2732564291
O459       O    0.5619316843    0.7669841938    0.2840933711
O460       O    0.5451835901    0.7996773914    0.2480271336
O461       O    0.5035034146    0.8007455333    0.2000472920
O462       O    0.4989771762    0.8096675656    0.2476014349
C463       C    0.4834446831    0.8098453091    0.2630575702
O464       O    0.4508187531    0.7364360921    0.2934594586
O465       O    0.4476841774    0.7074581446    0.1982050248
O466       O    0.4382914082    0.7587937259    0.2560036793
O467       O    0.4367586022    0.7479354482    0.2167335997
O468       O    0.4669244911    0.6723242502    0.2332618396
O469       O    0.4653134680    0.6846505628    0.2744387495
C470       C    0.4287072762    0.7555374516    0.2359011677
H471       H    0.4956278060    0.6947822214    0.2044266980
H472       H    0.4995630594    0.7183728388    0.2912768948
H473       H    0.4713241924    0.7766904817    0.2291861535
H474       H    0.5571676073    0.7558417541    0.2341939152
H475       H    0.5023727967    0.6572789358    0.2789232432
H476       H    0.5721719744    0.7605593815    0.2976812610
H477       H    0.5433169224    0.8168440937    0.2429087938
H478       H    0.4691752725    0.6553490492    0.2388768633
H479       H    0.4382073303    0.7135230950    0.1838972237
H480       H    0.4520342802    0.7576436431    0.1721685083
H481       H    0.5102921499    0.8174776080    0.2031880467
H482       H    0.4709110241    0.6875568704    0.2917182624
H483       H    0.4417167683    0.7238645691    0.2833897634
H484       H    0.5691402516    0.7235497943    0.1779488250
H485       H    0.5500618960    0.8027599477    0.2034730864
H486       H    0.4565225939    0.6933371833    0.1914222691
H487       H    0.4601847192    0.7268364701    0.3055492538
H488       H    0.5558563775    0.6977122720    0.2905921497
H489       H    0.5274946233    0.6702906631    0.2748939358
H490       H    0.4858413270    0.8025083441    0.2026745282
H491       H    0.5735208051    0.7696345596    0.2706494477
H492       H    0.5706883523    0.7476092794    0.1941288031
C493       C    0.3246168724    0.7637693444    0.2678009107
N494       N    0.3137810002    0.7525918172    0.2910775748
C495       C    0.2914600425    0.7642182803    0.3030283193
N496       N    0.2799749570    0.7870222706    0.2917023998
C497       C    0.2908108292    0.7981997978    0.2684257357
N498       N    0.3131317869    0.7865733347    0.2564749912
C499       C    0.1921661250    0.7251865791    0.7177124086
N500       N    0.2034122949    0.7025126359    0.7295378129
C501       C    0.2263097336    0.6910924597    0.7185320287
N502       N    0.2379610025    0.7023462267    0.6957008401
C503       C    0.2267148326    0.7250201699    0.6838754358
N504       N    0.2038173938    0.7364403461    0.6948812201
C505       C    0.4789359684    0.7842584007    0.4166983466
N506       N    0.4561140556    0.7726617775    0.4281378674
C507       C    0.4449230400    0.7846021298    0.4510829634
N508       N    0.4565539373    0.8081391054    0.4625885386
C509       C    0.4793758501    0.8197357286    0.4511490177
N510       N    0.4905668656    0.8077953762    0.4282039217
Zr511     Zr   -0.0087325282    0.7800578847    0.7710412776
O512       O    0.0087885828    0.8032760343    0.7979677206
O513       O   -0.0490527435    0.7840820874    0.7737975530
O514       O   -0.0143649088    0.8182518226    0.7585359535
O515       O   -0.0070001952    0.7283847529    0.8100843630
O516       O   -0.0042334286    0.8192907872    0.7195567652
O517       O   -0.0159154906    0.7674356800    0.8091435111
O518       O   -0.0662804751    0.7581651517    0.7468627943
O519       O   -0.0201578754    0.7737284885    0.7340981492
O520       O   -0.0210712041    0.7438114185    0.7638912341
O521       O    0.0197651158    0.7840445777    0.7459181770
O522       O    0.0188552176    0.7541281526    0.7757102344
Zr523     Zr    0.0216430860    0.7194314858    0.7103811604
Zr524     Zr    0.0074293604    0.7817097584    0.7088787342
Zr525     Zr    0.0054818280    0.7177760219    0.7725437366
Zr526     Zr   -0.0362077535    0.7387198771    0.7280793650
O527       O    0.0340045721    0.7097572587    0.7976789031
O528       O   -0.0569180542    0.7549807112    0.6994835171
O529       O   -0.0068573578    0.7154405578    0.7355053213
O530       O   -0.0059440292    0.7453576278    0.7057122364
O531       O    0.0339823926    0.7556743619    0.7175312368
O532       O    0.0330690639    0.7257572919    0.7473243217
C533       C   -0.0659097988    0.7738706617    0.7628537061
C534       C   -0.0137601762    0.7476730563    0.8184698363
C535       C   -0.0113248769    0.8276465705    0.7388308007
O536       O   -0.0201924699    0.7896112065    0.6825237408
O537       O    0.0199113837    0.7711010274    0.6713381078
O538       O    0.0288266791    0.7320501003    0.6722789598
C539       C    0.0266719954    0.7518091338    0.6629526673
O540       O    0.0568290832    0.7872907149    0.7816545160
Zr541     Zr    0.0491189420    0.7607659032    0.7533431059
O542       O    0.0619639320    0.7154036929    0.7076249178
O543       O    0.0370253386    0.8048665833    0.6992212973
O544       O    0.0700059235    0.7878218610    0.7354873050
O545       O    0.0712462065    0.7463933030    0.7820790770
O546       O    0.0791916636    0.7413206287    0.7345596765
C547       C    0.0788209873    0.7256151186    0.7185687647
O548       O    0.0045048712    0.6938634787    0.6853262420
O549       O   -0.0226928274    0.6919721401    0.7798336389
O550       O    0.0272760973    0.6812339577    0.7228865173
O551       O    0.0171446170    0.6801949931    0.7618657057
O552       O   -0.0580463928    0.7115648308    0.7446061441
O553       O   -0.0465394301    0.7094111585    0.7036456852
C554       C    0.0242360654    0.6718392098    0.7425916701
H555       H   -0.0346339050    0.7402130119    0.7749602347
H556       H   -0.0126402380    0.7430646597    0.6887622283
H557       H    0.0461765407    0.7142831783    0.7512646474
H558       H    0.0267511693    0.8006779802    0.7487162700
H559       H   -0.0732877397    0.7469936926    0.6997942773
H560       H    0.0305424236    0.8151324300    0.6858302731
H561       H    0.0871869073    0.7857072646    0.7409432120
H562       H   -0.0750390294    0.7140574478    0.7386710136
H563       H   -0.0165425650    0.6824837283    0.7939626682
H564       H    0.0279045559    0.6957154919    0.8071977635
H565       H    0.0879887655    0.7528992073    0.7795598161
H566       H   -0.0438641172    0.7148365516    0.6866195830
H567       H   -0.0080006238    0.6850250281    0.6947944908
H568       H   -0.0042123764    0.8136757200    0.8046412603
H569       H    0.0739821517    0.7930246238    0.7802971213
H570       H   -0.0364993841    0.7011246878    0.7865934842
H571       H   -0.0051312254    0.7033171759    0.6733299268
H572       H   -0.0322747983    0.7998674039    0.6908984921
H573       H   -0.0598120467    0.7720051691    0.7049904227
H574       H    0.0726559797    0.7286299114    0.7788856324
H575       H    0.0401122459    0.8165542510    0.7131297428
H576       H    0.0195082373    0.8146988781    0.7890686702
C577       C    0.0750736874    0.7235319941    0.5200088575
N578       N    0.0631763103    0.7001732324    0.5083967324
C579       C    0.0399808690    0.6890235399    0.5195294926
N580       N    0.0286828048    0.7012326091    0.5422743780
C581       C    0.0405801819    0.7245913709    0.5538865031
N582       N    0.0637756232    0.7357410633    0.5427537429
Zr583     Zr    0.7219959654    0.5199644680    0.2338311441
O584       O    0.6950410735    0.5406959153    0.2516252836
O585       O    0.7187651379    0.5258101658    0.1932848553
O586       O    0.7335108261    0.5591451663    0.2305073912
O587       O    0.6844601077    0.4659311149    0.2315620737
O588       O    0.7721710606    0.5620013564    0.2422351095
O589       O    0.6844777522    0.5054422705    0.2245370910
O590       O    0.7457880418    0.5023684093    0.1756536425
O591       O    0.7585723699    0.5164013567    0.2233905294
O592       O    0.7297062163    0.4847848565    0.2198752136
O593       O    0.7470717084    0.5240356918    0.2636960865
O594       O    0.7182065938    0.4924197279    0.2601842989
Zr595     Zr    0.7836198829    0.4615020179    0.2637373954
Zr596     Zr    0.7836500064    0.5245141629    0.2525384416
Zr597     Zr    0.7219658915    0.4569487030    0.2450305553
Zr598     Zr    0.7650985013    0.4825742812    0.2057124024
O599       O    0.6975546612    0.4460354487    0.2724406409
O600       O    0.7928424914    0.5015425032    0.1867134535
O601       O    0.7585431505    0.4574266378    0.2338693822
O602       O    0.7874093040    0.4890431380    0.2373846980
O603       O    0.7759096815    0.4966780093    0.2776937833
O604       O    0.7470435280    0.4650615092    0.2741784675
C605       C    0.7296358090    0.5170904140    0.1762011125
C606       C    0.6756855137    0.4850366929    0.2253845320
C607       C    0.7528466682    0.5695532026    0.2347752302
O608       O    0.8092802907    0.5353383045    0.2260764818
O609       O    0.8211557902    0.5155317510    0.2660069232
O610       O    0.8211381456    0.4760205954    0.2730319060
C611       C    0.8299304337    0.4964225530    0.2721849224
O612       O    0.7120205061    0.5233253173    0.2998727084
Zr613     Zr    0.7405173966    0.4988885846    0.2918565945
O614       O    0.7868507600    0.4556527001    0.3042841417
O615       O    0.7930280567    0.5467641997    0.2838749080
O616       O    0.7578368641    0.5259513680    0.3149150203
O617       O    0.7126097354    0.4817286448    0.3123716493
O618       O    0.7598278560    0.4790944566    0.3219153545
C619       C    0.7759800889    0.4643724519    0.3213678844
O620       O    0.8087759387    0.4382926681    0.2461430006
O621       O    0.7150013433    0.4321246913    0.2150851192
O622       O    0.7721050718    0.4223176996    0.2670616057
O623       O    0.7334448373    0.4194615095    0.2553338875
O624       O    0.7490865489    0.4555384792    0.1817397833
O625       O    0.7897890018    0.4552549022    0.1947709084
C626       C    0.7527692296    0.4119096632    0.2627937667
H627       H    0.7186863559    0.4812005547    0.2056112372
H628       H    0.8041631191    0.4880905565    0.2311588574
H629       H    0.7435211030    0.4527169015    0.2866763792
H630       H    0.7440252905    0.5401429341    0.2714529798
H631       H    0.7925329891    0.4943518150    0.1698078615
H632       H    0.8059977977    0.5581368432    0.2783497435
H633       H    0.7526599977    0.5226666827    0.3319235326
H634       H    0.7547317005    0.4592200477    0.1649577642
H635       H    0.7012814167    0.4215012988    0.2202856001
H636       H    0.6883659385    0.4317413231    0.2652419417
H637       H    0.7151399553    0.4875525046    0.3296630038
H638       H    0.8065531046    0.4615558722    0.1983747166
H639       H    0.7994614456    0.4295161276    0.2327463498
H640       H    0.6880828556    0.5513306435    0.2387830147
H641       H    0.7134213395    0.5282885404    0.3174961185
H642       H    0.7079755701    0.4415480253    0.2013660899
H643       H    0.8203497178    0.4489265137    0.2373471019
H644       H    0.8006509658    0.5456831916    0.2140891708
H645       H    0.7870044703    0.5183667593    0.1844291677
H646       H    0.7161583027    0.4641017717    0.3130365462
H647       H    0.7790494549    0.5574618592    0.2870403107
H648       H    0.7037193778    0.5521087478    0.2633279522
Zr649     Zr    0.7451758898    0.2142595074    0.5211158037
O650       O    0.7623387677    0.1885451649    0.5441218801
O651       O    0.7048028316    0.2103191528    0.5248426556
O652       O    0.7395398460    0.2272658122    0.5597906591
O653       O    0.7466802813    0.1745052142    0.4683368052
O654       O    0.7500779688    0.2663170650    0.5616377453
O655       O    0.7376365497    0.1759402561    0.5076356902
O656       O    0.6879428965    0.2359968678    0.4991198259
O657       O    0.7341562209    0.2504542705    0.5153539992
O658       O    0.7330352503    0.2202384545    0.4846487389
O659       O    0.7739295094    0.2401953437    0.5257982848
O660       O    0.7728119788    0.2099806703    0.4950937170
Zr661     Zr    0.7764048290    0.2742463380    0.4613826517
Zr662     Zr    0.7619862955    0.2765370215    0.5240564332
Zr663     Zr    0.7595950664    0.2119687392    0.4584384090
Zr664     Zr    0.7182873127    0.2552165144    0.4800874303
O665       O    0.7878898832    0.1877559144    0.4500834047
O666       O    0.6978143573    0.2832803464    0.4968643025
O667       O    0.7476484126    0.2483092744    0.4566958649
O668       O    0.7487693831    0.2785250905    0.4874011252
O669       O    0.7885461116    0.2682673062    0.4978461032
O670       O    0.7874251410    0.2380514902    0.4671408430
C671       C    0.6880916626    0.2204447193    0.5146450815
C672       C    0.7397636986    0.1663504246    0.4875654742
C673       C    0.7427540271    0.2471193179    0.5696458581
O674       O    0.7346057848    0.3019875128    0.5323222862
O675       O    0.7749010806    0.3140005465    0.5141580370
O676       O    0.7839448122    0.3125655047    0.4748591519
C677       C    0.7818183064    0.3221552514    0.4949257548
O678       O    0.8106175172    0.2059535617    0.5286517591
Zr679     Zr    0.8032940492    0.2332892463    0.5024074119
O680       O    0.8167785303    0.2781866079    0.4576521865
O681       O    0.7916099416    0.2875350914    0.5477694597
O682       O    0.8242787164    0.2522295598    0.5301428806
O683       O    0.8251762743    0.2051693369    0.4875399167
O684       O    0.8336384654    0.2525088929    0.4833750163
C685       C    0.8334896993    0.2680610414    0.4678497607
O686       O    0.7596135526    0.2980671679    0.4359767063
O687       O    0.7314270849    0.2033137920    0.4321127060
O688       O    0.7820415160    0.2612399486    0.4227041831
O689       O    0.7715033931    0.2221886957    0.4208570969
O690       O    0.6963649999    0.2375636663    0.4522705550
O691       O    0.7083107962    0.2785620453    0.4509477570
C692       C    0.7788273348    0.2413864428    0.4128489841
H693       H    0.7193659375    0.2087422908    0.4807231525
H694       H    0.7422568156    0.2950977056    0.4853631917
H695       H    0.8005346265    0.2343255030    0.4555968584
H696       H    0.7808300656    0.2379734625    0.5425510308
H697       H    0.6814651960    0.2822899115    0.4886999643
H698       H    0.7852297308    0.3008326579    0.5583187170
H699       H    0.8414142512    0.2473163504    0.5280276459
H700       H    0.6794215547    0.2429663559    0.4547769060
H701       H    0.7374641316    0.1892883877    0.4223305655
H702       H    0.7817377085    0.1778269228    0.4357166623
H703       H    0.8419266650    0.2083350049    0.4942560662
H704       H    0.7111459739    0.2956637846    0.4567512530
H705       H    0.7470367112    0.2880889849    0.4268092447
H706       H    0.7492285405    0.1817130138    0.5543850749
H707       H    0.8277690549    0.2079630176    0.5345711696
H708       H    0.7175145034    0.1963452195    0.4411123342
H709       H    0.7500676192    0.3098629960    0.4456600390
H710       H    0.7223971199    0.2934923725    0.5424152948
H711       H    0.6948027209    0.2780617125    0.5138926637
H712       H    0.8266816978    0.2080285047    0.4697135708
H713       H    0.7945113955    0.2740566793    0.5593045356
H714       H    0.7731143668    0.1979531678    0.5558701250
C715       C    0.7745556845    0.2999074324    0.2633923342
N716       N    0.7635581186    0.2880053480    0.2862226317
C717       C    0.7755256811    0.2654113484    0.2974702677
N718       N    0.7984908094    0.2547194333    0.2858876062
C719       C    0.8094883752    0.2666215177    0.2630573087
N720       N    0.7975208127    0.2892155173    0.2518096727
C721       C    0.7272027235    0.6732493301    0.2269077698
N722       N    0.7388051753    0.6852767535    0.2044530484
C723       C    0.7272453396    0.7080452001    0.1931288282
N724       N    0.7040830522    0.7187862232    0.2042593294
C725       C    0.6924806004    0.7067587998    0.2267140509
N726       N    0.7040404360    0.6839903532    0.2380382710
C727       C    0.8300778305    0.4523968760    0.4686472967
N728       N    0.8179531359    0.4634410027    0.4456522113
C729       C    0.7949997704    0.4510602553    0.4337546694
N730       N    0.7841710993    0.4276353812    0.4448522128
C731       C    0.7962957939    0.4165912545    0.4678472981
N732       N    0.8192491595    0.4289720020    0.4797448401
Zr733     Zr    0.4864991234    0.4614027208    0.9602662778
O734       O    0.5030074160    0.4386440031    0.9336465369
O735       O    0.4460156469    0.4568443418    0.9562871707
O736       O    0.4800795768    0.4230148659    0.9722637312
O737       O    0.4889461586    0.5134418841    0.9217363737
O738       O    0.4908013636    0.4217895861    1.0115329119
O739       O    0.4790385065    0.4742481372    0.9220647164
O740       O    0.4298703357    0.4823066527    0.9829480606
O741       O    0.4758125870    0.4672678410    0.9969309663
O742       O    0.4751992423    0.4974304717    0.9673783902
O743       O    0.5153009942    0.4575978286    0.9861930760
O744       O    0.5146910810    0.4877598529    0.9566416226
Zr745     Zr    0.5193988416    0.5219597807    1.0223657430
Zr746     Zr    0.5036025418    0.4594537833    1.0228914701
Zr747     Zr    0.5022961459    0.5239123184    0.9597405687
Zr748     Zr    0.4607503879    0.5020156352    1.0027914627
O749       O    0.5306414411    0.5325368662    0.9355160317
O750       O    0.4400633492    0.4852252862    1.0306328078
O751       O    0.4905942620    0.5257688795    0.9964378401
O752       O    0.4912076067    0.4956062488    1.0259904162
O753       O    0.5306994454    0.4859356300    1.0152536486
O754       O    0.5300861007    0.5160982607    0.9857010724
C755       C    0.4295861578    0.4667350311    0.9668267726
C756       C    0.4815559126    0.4941244941    0.9129787559
C757       C    0.4831892523    0.4134944937    0.9919746876
O758       O    0.4761807229    0.4509488170    1.0483634361
O759       O    0.5169525291    0.4699242177    1.0608956651
O760       O    0.5268601812    0.5091179646    1.0605673223
C761       C    0.5243434978    0.4892452079    1.0696533008
O762       O    0.5517348569    0.4551603593    0.9515174310
Zr763     Zr    0.5451482998    0.4813504666    0.9798405761
O764       O    0.5598830408    0.5265217599    1.0263448681
O765       O    0.5327674179    0.4366172253    1.0332125939
O766       O    0.5656293153    0.4544249856    0.9980690240
O767       O    0.5672021573    0.4962727092    0.9518838757
O768       O    0.5760283519    0.5010594491    0.9996839782
C769       C    0.5763125299    0.5166310706    1.0158052662
O770       O    0.5033045615    0.5470899971    1.0471462443
O771       O    0.4746584204    0.5493965646    0.9518526139
O772       O    0.5258191109    0.5603512358    1.0103683076
O773       O    0.5150973241    0.5615765157    0.9710991269
O774       O    0.4393407669    0.5290160081    0.9858649551
O775       O    0.4515517920    0.5309867600    1.0271845724
C776       C    0.5227094354    0.5698716080    0.9906573512
H777       H    0.4615494213    0.5009354618    0.9559421691
H778       H    0.4848340766    0.4976659622    1.0427643975
H779       H    0.5434318460    0.5277895685    0.9822492829
H780       H    0.5218184846    0.4410790123    0.9834513664
H781       H    0.4238873166    0.4929916429    1.0299118759
H782       H    0.5262285866    0.4261469347    1.0463211575
H783       H    0.5827858941    0.4568227260    0.9931375752
H784       H    0.4223704329    0.5262387235    0.9912777950
H785       H    0.4808328816    0.5590907606    0.9379892627
H786       H    0.5247500984    0.5465783819    0.9259432708
H787       H    0.5838240001    0.4899746109    0.9548376266
H788       H    0.4543564786    0.5254543212    1.0442412578
H789       H    0.4908722016    0.5558378473    1.0373889206
H790       H    0.4896289638    0.4281176086    0.9264969228
H791       H    0.5687689478    0.4496498627    0.9533282860
H792       H    0.4605047317    0.5401073052    0.9446041645
H793       H    0.4936101985    0.5374002811    1.0587745389
H794       H    0.4636982174    0.4405928364    1.0395408842
H795       H    0.4366441081    0.4682016940    1.0248879202
H796       H    0.5691191860    0.5140343276    0.9552781789
H797       H    0.5353365724    0.4250847367    1.0192898001
H798       H    0.5135778430    0.4272910952    0.9427589134
C799       C    0.5592492843    0.7194942350    0.0137090280
N800       N    0.5478308764    0.7305448583    0.0369718011
C801       C    0.5251284133    0.7182618308    0.0479645198
N802       N    0.5138443581    0.6949281799    0.0356944653
C803       C    0.5252627660    0.6838775567    0.0124316921
N804       N    0.5479652291    0.6961605842    0.0014389735
Zr805     Zr    0.2788868429    0.2805077933    0.9808943366
O806       O    0.3022290962    0.3065273340    0.9994150097
O807       O    0.2829315716    0.2845286177    0.9403092611
O808       O    0.3168907388    0.2680302262    0.9749285300
O809       O    0.2276299846    0.3195485608    0.9836780986
O810       O    0.3176465648    0.2289901920    0.9840025143
O811       O    0.2665718200    0.3186550926    0.9747432657
O812       O    0.2568976435    0.2585084870    0.9220783138
O813       O    0.2723148793    0.2442365912    0.9682653319
O814       O    0.2426905324    0.2740398895    0.9681557700
O815       O    0.2826757368    0.2546108179    1.0089111996
O816       O    0.2530520247    0.2844129804    1.0088050695
Zr817     Zr    0.2179829117    0.2196750850    1.0096147029
Zr818     Zr    0.2800871900    0.2182480985    0.9953697998
Zr819     Zr    0.2167789841    0.2819348147    0.9951398690
Zr820     Zr    0.2373622259    0.2390046246    0.9518189789
O821       O    0.2089523576    0.3060174051    1.0246368960
O822       O    0.2533818631    0.2111794851    0.9301194748
O823       O    0.2141898024    0.2455732311    0.9815950373
O824       O    0.2438141493    0.2157699329    0.9817045993
O825       O    0.2541756417    0.2261430238    1.0223538988
O826       O    0.2245512948    0.2559463221    1.0222443369
C827       C    0.2726746212    0.2742745310    0.9229584987
C828       C    0.2469280732    0.3279715735    0.9771486004
C829       C    0.3261191112    0.2483054153    0.9774353271
O830       O    0.2877878736    0.1929257678    0.9667454015
O831       O    0.2692361895    0.1806343524    1.0068315702
O832       O    0.2302943541    0.1815278206    1.0157664031
C833       C    0.2499345205    0.1722113748    1.0133616977
O834       O    0.2861566838    0.2888706277    1.0473621688
Zr835     Zr    0.2595039482    0.2611782886    1.0386906899
O836       O    0.2139346024    0.2156542956    1.0502004077
O837       O    0.3031044192    0.2075499121    1.0249931221
O838       O    0.2863540167    0.2425975758    1.0592953157
O839       O    0.2453680532    0.2890845081    1.0618279578
O840       O    0.2399685306    0.2416744263    1.0684313550
C841       C    0.2241915529    0.2259083822    1.0675511701
O842       O    0.1923103260    0.1955164084    0.9915302488
O843       O    0.1911045525    0.2902528617    0.9668747186
O844       O    0.1799754353    0.2321526871    1.0155811388
O845       O    0.1792196093    0.2711927212    1.0065071545
O846       O    0.2104041541    0.2562972288    0.9302149189
O847       O    0.2079614267    0.2152655607    0.9406110061
C848       C    0.1707470629    0.2518774980    1.0130743417
H849       H    0.2391845191    0.2854942932    0.9547919408
H850       H    0.2414086683    0.1991715504    0.9744446885
H851       H    0.2131322581    0.2595062355    1.0355579096
H852       H    0.2992823003    0.2570562849    1.0160781803
H853       H    0.2454232918    0.2120706432    0.9135970722
H854       H    0.3132492537    0.1943984681    1.0180811771
H855       H    0.2842789345    0.2474704369    1.0767837209
H856       H    0.2128527754    0.2509399970    0.9129032323
H857       H    0.1817404115    0.3041429579    0.9734745625
H858       H    0.1950178588    0.3157567495    1.0187325839
H859       H    0.2518336669    0.2859977481    1.0786581274
H860       H    0.2132502879    0.1982380481    0.9428200321
H861       H    0.1835666574    0.2053803975    0.9791741144
H862       H    0.3126520969    0.3135098316    0.9865193793
H863       H    0.2918605267    0.2869291268    1.0646389979
H864       H    0.2002846167    0.2973551691    0.9531661721
H865       H    0.2016560375    0.1838574313    0.9814766662
H866       H    0.2980796114    0.2015685578    0.9548263202
H867       H    0.2704005824    0.2166330824    0.9274001276
H868       H    0.2276292825    0.2859809757    1.0631165712
H869       H    0.3148587464    0.2211855498    1.0285431492
H870       H    0.3135547800    0.2972700678    1.0099920947
C871       C    0.2750530315    0.4363104954    0.9577196001
N872       N    0.2636444671    0.4480773369    0.9347450680
C873       C    0.2760281089    0.4706416702    0.9234783482
N874       N    0.2998203151    0.4814391620    0.9351861605
C875       C    0.3112288795    0.4696723205    0.9581606927
N876       N    0.2988452377    0.4471079872    0.9694274125
C877       C    0.4344686541    0.2603698399    0.9745312944
N878       N    0.4458384508    0.2484006452    0.9516984315
C879       C    0.4690219723    0.2597232962    0.9407052169
N880       N    0.4808356970    0.2830151419    0.9525448650
C881       C    0.4694659003    0.2949843367    0.9753777279
N882       N    0.4462823788    0.2836616857    0.9863709426
Zr883     Zr    0.5380002705    1.0156124529    0.5286409218
O884       O    0.5619667632    0.9984813483    0.5538186454
O885       O    0.5423885290    1.0561229451    0.5335575866
O886       O    0.5756451035    1.0227470068    0.5152285491
O887       O    0.4878980581    1.0115554718    0.5692408684
O888       O    0.5752230173    1.0131669320    0.4756487680
O889       O    0.5268309018    1.0218501437    0.5675493773
O890       O    0.5157310527    1.0728670717    0.5084417746
O891       O    0.5304602510    1.0273548995    0.4925586195
O892       O    0.5017217480    1.0268273573    0.5233603869
O893       O    0.5408796371    0.9875357906    0.5017759659
O894       O    0.5121417160    0.9870048467    0.5325764904
Zr895     Zr    0.4752322487    0.9839161740    0.4682202667
Zr896     Zr    0.5373221023    1.0003297413    0.4655204771
Zr897     Zr    0.4759068370    0.9991981292    0.5313408240
Zr898     Zr    0.4954810470    1.0423163179    0.4885800744
O899       O    0.4686133996    0.9699885453    0.5551083920
O900       O    0.5108080045    1.0640280875    0.4606433879
O901       O    0.4723487202    1.0119954817    0.4950865782
O902       O    0.5010872232    1.0125230239    0.4642848107
O903       O    0.5115071913    0.9727005132    0.4735009142
O904       O    0.4827686882    0.9721729710    0.5043026816
C905       C    0.5319437477    1.0728163977    0.5239025097
C906       C    0.5074592718    1.0188798269    0.5773875387
C907       C    0.5842824237    1.0202961969    0.4950524706
O908       O    0.5444489940    1.0286492039    0.4404859428
O909       O    0.5253308812    0.9879723987    0.4276204327
O910       O    0.4863980375    0.9776777269    0.4293119238
C911       C    0.5057660875    0.9806472873    0.4194738750
O912       O    0.5451262907    0.9500081145    0.5352945060
Zr913     Zr    0.5177478923    0.9572115526    0.5082812267
O914       O    0.4708404102    0.9434049254    0.4633037145
O915       O    0.5598420064    0.9715998515    0.4534382345
O916       O    0.5439213802    0.9374576303    0.4883716007
O917       O    0.5042971755    0.9341428491    0.5362167151
O918       O    0.4974978866    0.9266607988    0.4884195265
C919       C    0.4812851916    0.9267114728    0.4729587915
O920       O    0.4489886318    1.0005566669    0.4449675692
O921       O    0.4506557011    1.0264449435    0.5410605258
O922       O    0.4375838358    0.9767808638    0.4816327520
O923       O    0.4380059219    0.9863609385    0.5212125331
O924       O    0.4691682048    1.0630389412    0.5072182187
O925       O    0.4654854166    1.0519975878    0.4656822474
C926       C    0.4289465155    0.9792316736    0.5018088305
H927       H    0.4986251630    1.0401433001    0.5353133373
H928       H    0.4982466471    1.0193890226    0.4477926939
H929       H    0.4713864667    0.9585863263    0.5078669626
H930       H    0.5575013373    0.9810691602    0.5036410431
H931       H    0.5029762012    1.0801544289    0.4621411819
H932       H    0.5696381472    0.9786360164    0.4400878635
H933       H    0.5418890028    0.9200902514    0.4929183783
H934       H    0.4715588226    1.0802372053    0.5021694503
H935       H    0.4416626435    1.0197587906    0.5551426093
H936       H    0.4550055339    0.9754865095    0.5654238312
H937       H    0.5105722747    0.9176222200    0.5325374017
H938       H    0.4702661395    1.0497384499    0.4483331604
H939       H    0.4406073877    1.0126544614    0.4554287670
H940       H    0.5726553911    1.0117776718    0.5608944797
H941       H    0.5506707618    0.9330334047    0.5327783430
H942       H    0.4601105656    1.0405044577    0.5483085660
H943       H    0.4580472722    1.0107057590    0.4332168837
H944       H    0.5550487803    1.0409964241    0.4492150546
H945       H    0.5279845339    1.0674395401    0.4657653775
H946       H    0.4864771293    0.9321614962    0.5335157950
H947       H    0.5719589475    0.9687171140    0.4667920080
H948       H    0.5729553852    0.9882546208    0.5439447661
Zr949     Zr    0.2834363799    0.9757665930    0.2776975505
O950       O    0.3095215982    0.9931022109    0.3019308356
O951       O    0.2870786905    0.9352898391    0.2804457780
O952       O    0.2708923106    0.9685735317    0.3157932717
O953       O    0.3224593880    0.9800618604    0.2262088728
O954       O    0.2320386320    0.9778741020    0.3167395583
O955       O    0.3214402086    0.9697925656    0.2651868496
O956       O    0.2609988123    0.9183390118    0.2535072834
O957       O    0.2471592163    0.9637594609    0.2705430565
O958       O    0.2769171996    0.9644766669    0.2407494275
O959       O    0.2578554516    1.0036595974    0.2823690752
O960       O    0.2876123320    1.0043801974    0.2525761968
Zr961     Zr    0.2231013514    1.0069766673    0.2170396925
Zr962     Zr    0.2214739257    0.9906035561    0.2792017463
Zr963     Zr    0.2850638506    0.9921404579    0.2155319065
Zr964     Zr    0.2418379444    0.9487330323    0.2347302420
O965       O    0.3093541229    1.0215150829    0.2086860733
O966       O    0.2138747962    0.9268356934    0.2500863832
O967       O    0.2486834276    0.9790810226    0.2123638270
O968       O    0.2189254443    0.9783638166    0.2421574560
O969       O    0.2296205767    1.0182673471    0.2539842253
O970       O    0.2593785600    1.0189845531    0.2241905963
C971       C    0.2767102384    0.9185153483    0.2694959066
C972       C    0.3307772026    0.9728136953    0.2454817338
C973       C    0.2512321154    0.9708903445    0.3251250985
O974       O    0.1959552382    0.9621100317    0.2859457410
O975       O    0.1840783883    1.0026821536    0.2685247800
O976       O    0.1850975677    1.0129514484    0.2295468031
C977       C    0.1757606186    1.0099310724    0.2492483286
O978       O    0.2923612039    1.0414339939    0.2872546260
Zr979     Zr    0.2646998319    1.0340109817    0.2600034107
O980       O    0.2194590858    1.0474541749    0.2142878748
O981       O    0.2110409166    1.0192741402    0.3033652461
O982       O    0.2463204241    1.0536525775    0.2877106940
O983       O    0.2927543455    1.0572672961    0.2465950202
O984       O    0.2455389640    1.0644050022    0.2412263694
C985       C    0.2298275379    1.0642286657    0.2252377462
O986       O    0.1988787223    0.9901430975    0.1904760404
O987       O    0.2931386271    0.9649336952    0.1887262359
O988       O    0.2356454657    1.0141704823    0.1789403810
O989       O    0.2744991443    1.0048699120    0.1779940945
O990       O    0.2589239545    0.9281134594    0.2068771108
O991       O    0.2180998415    0.9388584028    0.2046351893
C992       C    0.2553056609    1.0118536696    0.1696085543
H993       H    0.2882254038    0.9512405208    0.2368051366
H994       H    0.2023103598    0.9713772392    0.2394415649
H995       H    0.2630618895    1.0325869492    0.2131247121
H996       H    0.2603376793    1.0101568528    0.2993627832
H997       H    0.2146258084    0.9107099953    0.2415152664
H998       H    0.1978509248    1.0121522053    0.3133292693
H999       H    0.2513388273    1.0710524819    0.2862111164
H1000      H    0.2534236139    0.9108794931    0.2087578416
H1001      H    0.3070615045    0.9717115535    0.1795414843
H1002      H    0.3190315133    1.0160759079    0.1944654879
H1003      H    0.2898183080    1.0737703324    0.2536639972
H1004      H    0.2011318336    0.9409997055    0.2099918472
H1005      H    0.2086163413    0.9781094372    0.1812777133
H1006      H    0.3163569618    0.9798648572    0.3120373795
H1007      H    0.2905722444    1.0583986845    0.2935734846
H1008      H    0.3000877551    0.9509330401    0.1975526186
H1009      H    0.1871500629    0.9799184139    0.1995345464
H1010      H    0.2044552629    0.9498335322    0.2959571631
H1011      H    0.2192681411    0.9234771585    0.2671775483
H1012      H    0.2896927832    1.0592120486    0.2287372698
H1013      H    0.2246565757    1.0222639203    0.3153786772
H1014      H    0.3003699543    1.0032713075    0.3136762856
C1015      C    0.2794237679    0.9654984134    0.4487207848
N1016      N    0.2683683651    0.9422668625    0.4599944453
C1017      C    0.2804151665    0.9312401072    0.4830408787
N1018      N    0.3035173706    0.9434449027    0.4948136516
C1019      C    0.3145727733    0.9666764536    0.4835399910
N1020      N    0.3025259719    0.9777032089    0.4604935576
C1021      C    0.4769088578    0.9258977554    0.2714587982
N1022      N    0.4888948668    0.9379159884    0.2947220701
C1023      C    0.4776949167    0.9608522527    0.3064567545
N1024      N    0.4545089577    0.9717702840    0.2949281669
C1025      C    0.4425229487    0.9597520510    0.2716648950
N1026      N    0.4537228988    0.9368157868    0.2599302106
Zr1027    Zr    0.0333207198    1.0109885046    1.0222721626
O1028      O    0.0566096522    0.9942550633    1.0483692740
O1029      O    0.0375244848    1.0515581771    1.0267189283
O1030      O    0.0713423209    1.0180044420    1.0098522644
O1031      O   -0.0179257781    1.0074004479    1.0614519727
O1032      O    0.0720386935    1.0078824567    0.9704346906
O1033      O    0.0210525476    1.0177389806    1.0607337220
O1034      O    0.0115425782    1.0679007185    1.0006117631
O1035      O    0.0267740893    1.0222154349    0.9858321948
O1036      O   -0.0028330976    1.0220596026    1.0157865523
O1037      O    0.0369857218    0.9825586464    0.9959239023
O1038      O    0.0073791559    0.9823993977    1.0258770845
Zr1039    Zr   -0.0277362204    0.9783580782    0.9605579318
Zr1040    Zr    0.0344262347    0.9948415659    0.9594103246
Zr1041    Zr   -0.0288453184    0.9945042558    1.0234197901
Zr1042    Zr   -0.0081209351    1.0370518259    0.9806301362
O1043      O   -0.0367708658    0.9656205560    1.0473834431
O1044      O    0.0079658107    1.0583980912    0.9528421424
O1045      O   -0.0314054264    1.0067905917    0.9869073878
O1046      O   -0.0017982395    1.0069464240    0.9569530303
O1047      O    0.0084140139    0.9672862190    0.9670435625
O1048      O   -0.0211931730    0.9671303868    0.9969979200
C1049      C    0.0273271695    1.0680926946    1.0165271560
C1050      C    0.0014040651    1.0148698517    1.0700483717
C1051      C    0.0805492571    1.0152926212    0.9899784887
O1052      O    0.0422216912    1.0228177557    0.9341890146
O1053      O    0.0235066945    0.9819453738    0.9213781420
O1054      O   -0.0154716313    0.9716068411    0.9220963928
C1055      C    0.0041732682    0.9744752089    0.9127817634
O1056      O    0.0403404589    0.9455156917    1.0300842930
Zr1057    Zr    0.0137018514    0.9522939958    1.0021999786
O1058      O   -0.0319435685    0.9377876446    0.9561111865
O1059      O    0.0573242684    0.9659983231    0.9484076393
O1060      O    0.0404627409    0.9323219545    0.9833508193
O1061      O   -0.0005065070    0.9295947744    1.0300606919
O1062      O   -0.0059616618    0.9214451032    0.9822183517
C1063      C   -0.0217462532    0.9212531271    0.9663029588
O1064      O   -0.0533561520    0.9946234440    0.9363257087
O1065      O   -0.0544074623    1.0218274887    1.0320049341
O1066      O   -0.0657614046    0.9713413797    0.9729778504
O1067      O   -0.0664577772    0.9814633650    1.0123954241
O1068      O   -0.0349867989    1.0579744068    0.9981907411
O1069      O   -0.0374955412    1.0463588248    0.9567460434
C1070      C   -0.0749683408    0.9740532005    0.9928516261
H1071      H   -0.0062806967    1.0355290270    1.0274452371
H1072      H   -0.0041863870    1.0135772932    0.9402929873
H1073      H   -0.0326619980    0.9535775196    1.0004296039
H1074      H    0.0535673699    0.9761508137    0.9983610044
H1075      H    0.0000708586    1.0745241060    0.9538771718
H1076      H    0.0674881238    0.9728657177    0.9352483840
H1077      H    0.0383232643    0.9150205685    0.9880889195
H1078      H   -0.0324747428    1.0751004909    0.9929638840
H1079      H   -0.0637889046    1.0153215114    1.0459133000
H1080      H   -0.0506774570    0.9712333819    1.0572173205
H1081      H    0.0058928187    0.9130417377    1.0268069271
H1082      H   -0.0322255411    1.0438704590    0.9395828374
H1083      H   -0.0620466443    1.0068449884    0.9463594094
H1084      H    0.0670874007    1.0076629823    1.0555527227
H1085      H    0.0459769633    0.9285234386    1.0279782459
H1086      H   -0.0451695305    1.0359983960    1.0393137206
H1087      H   -0.0439784412    1.0046231700    0.9246979918
H1088      H    0.0525654538    1.0352995642    0.9430356180
H1089      H    0.0249995929    1.0619101689    0.9584049398
H1090      H   -0.0182534029    0.9275443725    1.0268774105
H1091      H    0.0690743163    0.9633228713    0.9621412333
H1092      H    0.0678895663    0.9839166880    1.0389701915
C1093      C    0.0298523213    0.0634151287    0.2198862280
N1094      N    0.0525322234    0.0519455853    0.2318665651
C1095      C    0.0635751058    0.0288960765    0.2201967517
N1096      N    0.0519380861    0.0173161111    0.1965466011
C1097      C    0.0292581840    0.0287856544    0.1845662640
N1098      N    0.0182153016    0.0518351632    0.1962360774
C1099      C    0.0274236908    0.2245451941    0.0639553623
N1100      N    0.0502060923    0.2363796064    0.0526688160
C1101      C    0.0615783403    0.2246492979    0.0297126807
N1102      N    0.0501681868    0.2010845769    0.0180430916
C1103      C    0.0273857853    0.1892501646    0.0293296378
N1104      N    0.0160135373    0.2009804732    0.0522857732
C1105      C    0.2378064283    0.0272285975    0.0516307298
N1106      N    0.2491219905    0.0505434194    0.0407715542
C1107      C    0.2372873670    0.0620252992    0.0178554146
N1108      N    0.2141371814    0.0501923572    0.0057984507
C1109      C    0.2028216192    0.0268775353    0.0166576263
N1110      N    0.2146562426    0.0153956554    0.0395737658
C1111      C    0.2094065187    0.1742588525    0.2189806371
N1112      N    0.1869250260    0.1858134359    0.2306900228
C1113      C    0.1756954140    0.2087857276    0.2194458222
N1114      N    0.1869472947    0.2202034357    0.1964922357
C1115      C    0.2094287875    0.2086488522    0.1847828500
N1116      N    0.2206583995    0.1856765606    0.1960270507
Zr1117    Zr    0.7872926210   -0.0093941193    0.7731742970
O1118      O    0.8137155132    0.0092974606    0.7959811563
O1119      O    0.7914354343   -0.0496102867    0.7778245596
O1120      O    0.7756873795   -0.0148192169    0.8119007939
O1121      O    0.8250924866   -0.0072917445    0.7206101516
O1122      O    0.7367771160   -0.0058181165    0.8132519939
O1123      O    0.8250584134   -0.0156468550    0.7601143676
O1124      O    0.7649531265   -0.0680496901    0.7522934792
O1125      O    0.7510082176   -0.0220230142    0.7674112252
O1126      O    0.7800733491   -0.0225107586    0.7369229396
O1127      O    0.7615277789    0.0184470113    0.7770461521
O1128      O    0.7905917880    0.0179626801    0.7465584752
Zr1129    Zr    0.7252961908    0.0182854083    0.7123228702
Zr1130    Zr    0.7252397656    0.0049650097    0.7753240017
Zr1131    Zr    0.7873490026    0.0039268567    0.7101695373
Zr1132    Zr    0.7450522688   -0.0388019947    0.7324516896
O1133      O    0.8111510848    0.0331002892    0.7013468088
O1134      O    0.7176885501   -0.0601320797    0.7494999528
O1135      O    0.7510621117   -0.0095585581    0.7084467781
O1136      O    0.7219969802   -0.0090708136    0.7389350637
O1137      O    0.7325154191    0.0314026251    0.7485705993
O1138      O    0.7615805505    0.0309148807    0.7180823137
C1139      C    0.7810110019   -0.0669643658    0.7679257836
C1140      C    0.8339156898   -0.0135148332    0.7400541602
C1141      C    0.7562227769   -0.0122171101    0.8215546929
O1142      O    0.7001981308   -0.0233446055    0.7840289363
O1143      O    0.6874962815    0.0161836110    0.7648833873
O1144      O    0.6875303548    0.0245387215    0.7253791713
C1145      C    0.6786730347    0.0224072771    0.7454357504
O1146      O    0.7957101932    0.0566565416    0.7793173276
Zr1147    Zr    0.7675364993    0.0476938611    0.7530418493
O1148      O    0.7211533338    0.0585021532    0.7076689794
O1149      O    0.7150415062    0.0346571960    0.7983146010
O1150      O    0.7495744153    0.0684850088    0.7801945366
O1151      O    0.7950203171    0.0704752986    0.7378727801
O1152      O    0.7476356416    0.0769415566    0.7332000598
C1153      C    0.7315777663    0.0758562322    0.7175677553
O1154      O    0.7006771167   -0.0000033038    0.6871197640
O1155      O    0.7951153597   -0.0244532961    0.6845172473
O1156      O    0.7369013886    0.0237110834    0.6735927451
O1157      O    0.7758116522    0.0147099830    0.6722415450
O1158      O    0.7617291360   -0.0605866577    0.7052296996
O1159      O    0.7207625212   -0.0503162896    0.7033655269
C1160      C    0.7563659913    0.0211089766    0.6639388460
H1161      H    0.7914306597   -0.0358133320    0.7333764881
H1162      H    0.7054073471   -0.0163113024    0.7369293088
H1163      H    0.7648656582    0.0439766267    0.7062683930
H1164      H    0.7643180959    0.0257770302    0.7936669207
H1165      H    0.7184230043   -0.0766305161    0.7417019374
H1166      H    0.7021602097    0.0279276841    0.8089197498
H1167      H    0.7543665420    0.0858122009    0.7777315043
H1168      H    0.7564620884   -0.0777337565    0.7080764364
H1169      H    0.8087502914   -0.0180229910    0.6746920062
H1170      H    0.8205635432    0.0270620887    0.6871780919
H1171      H    0.7920644257    0.0872588341    0.7441985376
H1172      H    0.7039013960   -0.0480604546    0.7089931657
H1173      H    0.7103340738   -0.0123751969    0.6782950700
H1174      H    0.8209172529   -0.0033592805    0.8065848904
H1175      H    0.7938788590    0.0738736488    0.7848449378
H1176      H    0.8024104572   -0.0379329161    0.6938756678
H1177      H    0.6892698139   -0.0098601071    0.6969389978
H1178      H    0.7090509176   -0.0350335581    0.7944536160
H1179      H    0.7234978248   -0.0626053938    0.7666364710
H1180      H    0.7915396578    0.0715202747    0.7199872740
H1181      H    0.7288852339    0.0383382281    0.8098802505
H1182      H    0.8047215181    0.0199381526    0.8074313696
C1183      C    0.7336991551    0.0603893812    0.5062009448
N1184      N    0.7100524191    0.0488685845    0.4948871777
C1185      C    0.6980988343    0.0264613202    0.5068704754
N1186      N    0.7097919854    0.0155748526    0.5301675402
C1187      C    0.7334387213    0.0270956493    0.5414813073
N1188      N    0.7453923062    0.0495029136    0.5294980096
C1189      C    0.6840979492    0.2230167549    0.7032839707
N1190      N    0.6953473871    0.2341459879    0.6801859654
C1191      C    0.7179419224    0.2225579893    0.6687309306
N1192      N    0.7292870199    0.1998407578    0.6803739012
C1193      C    0.7180375820    0.1887115248    0.7034719066
N1194      N    0.6954430467    0.2002995233    0.7149269413
C1195      C    0.5293303263    0.0643755801    0.7345531479
N1196      N    0.5174408937    0.0525021330    0.7111690531
C1197      C    0.5288328960    0.0297888830    0.6991932874
N1198      N    0.5521143308    0.0189490803    0.7106016163
C1199      C    0.5640037633    0.0308225274    0.7339857111
N1200      N    0.5526117611    0.0535357774    0.7459614769
C1201      C    0.5489386868    0.2206079194    0.5747756732
N1202      N    0.5719264028    0.2318908317    0.5633616328
C1203      C    0.5829878063    0.2197824155    0.5404358648
N1204      N    0.5710614938    0.1963910872    0.5289241371
C1205      C    0.5480737779    0.1851081749    0.5403381774
N1206      N    0.5370123744    0.1972165910    0.5632639454
C1207      C    0.5745726360    0.5039194209    0.2076363876
N1208      N    0.5633930810    0.5269611000    0.2191746891
C1209      C    0.5407029464    0.5382910441    0.2070658819
N1210      N    0.5291923668    0.5265793092    0.1834187732
C1211      C    0.5403719219    0.5035376301    0.1718804718
N1212      N    0.5630620564    0.4922076860    0.1839892789
C1213      C    0.0737196885    0.5302235990    0.7186062743
N1214      N    0.0618281896    0.5182053514    0.6952956655
C1215      C    0.0387013961    0.5291361227    0.6836534814
N1216      N    0.0274661015    0.5520851416    0.6953219062
C1217      C    0.0393576004    0.5641033892    0.7186325149
N1218      N    0.0624843939    0.5531726179    0.7302746990
C1219      C    0.7673756651    0.9355955764    0.9726218213
N1220      N    0.7911293219    0.9466611673    0.9841575605
C1221      C    0.8033189338    0.9691939529    0.9726335620
N1222      N    0.7917548888    0.9806611477    0.9495738245
C1223      C    0.7680012320    0.9695955568    0.9380380853
N1224      N    0.7558116201    0.9470627712    0.9495620837
C1225      C    0.9824051379    0.9356547460    0.7538237306
N1226      N    0.9940008990    0.9468757539    0.7776614004
C1227      C    0.9828897446    0.9696982609    0.7897135561
N1228      N    0.9601828291    0.9812997601    0.7779280420
C1229      C    0.9485870680    0.9700787522    0.7540903722
N1230      N    0.9596982224    0.9472562452    0.7420382165
C1231      C    0.9297146555    0.7615346149    0.9565620154
N1232      N    0.9407738229    0.7497247689    0.9334821952
C1233      C    0.9636247039    0.7612978372    0.9220729478
N1234      N    0.9754164174    0.7846807515    0.9337435207
C1235      C    0.9643572500    0.7964905975    0.9568233409
N1236      N    0.9415063690    0.7849175292    0.9682325883
C1237      C    0.2258082102    0.5612416169    0.5195908794
N1238      N    0.2021049387    0.5499194666    0.5081990388
C1239      C    0.1900837886    0.5274277367    0.5199647421
N1240      N    0.2017659099    0.5162581572    0.5431222860
C1241      C    0.2254691814    0.5275803076    0.5545141265
N1242      N    0.2374903315    0.5500720374    0.5427484232
C1243      C    0.8025037302    0.7991450063    0.8267933180
N1244      N    0.8251019452    0.7875537841    0.8153520110
C1245      C    0.8366081837    0.7989198540    0.7925003223
N1246      N    0.8255162071    0.8218771460    0.7810899405
C1247      C    0.8029179921    0.8334683682    0.7925312475
N1248      N    0.7914117536    0.8221022983    0.8153829363
C2199      C    0.6103685966    0.0491996652    0.7427046290
C2200      C    0.5955790503    0.0285053073    0.7371385896
C2201      C    0.6071909553    0.0059899343    0.7342325651
C2202      C    0.6323082473    0.0040299678    0.7367205110
C2203      C    0.6470977477    0.0247244972    0.7422828720
C2204      C    0.6354858427    0.0472398703    0.7451888965
F2205      F    0.6484711671    0.0678422362    0.7505333955
H2206      H    0.6022840337    0.0669805783    0.7451221333
H2207      H    0.6403927643   -0.0137507737    0.7342993282
F2208      F    0.5942056309   -0.0146124317    0.7288880660
C2189      C    0.7448749356    0.1206714588    0.7006879694
C2190      C    0.7278690219    0.1067680293    0.7137068109
C2191      C    0.7078251253    0.1190122964    0.7233976200
C2192      C    0.7047388805    0.1438959694    0.7203483202
C2193      C    0.7217463263    0.1577997278    0.7073328510
C2194      C    0.7417902230    0.1455554606    0.6976420419
F2195      F    0.7588169559    0.1576793360    0.6849610058
H2196      H    0.7606439867    0.1120745958    0.6928604240
H2197      H    0.6889713616    0.1524931612    0.7281792379
F2198      F    0.6907983923    0.1068884211    0.7360786561
C2179      C    0.7289988385    0.0414446262    0.5935298396
C2180      C    0.7400744271    0.0253629616    0.5769234773
C2181      C    0.7560226405    0.0080781714    0.5867564775
C2182      C    0.7608028951    0.0067579882    0.6118910265
C2183      C    0.7497302855    0.0228416643    0.6284966761
C2184      C    0.7337820721    0.0401264545    0.6186636759
F2185      F    0.7225103759    0.0561228889    0.6334454874
H2186      H    0.7165576608    0.0551035836    0.5868577071
H2187      H    0.7732470519   -0.0068989577    0.6185624462
F2188      F    0.7672943368   -0.0079182630    0.5719746660
C2169      C    0.9020470159   -0.0207652799    0.7705443030
C2170      C    0.9167354852   -0.0253641361    0.7501916175
C2171      C    0.9053044471   -0.0262107439    0.7267604216
C2172      C    0.8804559828   -0.0226671454    0.7236003246
C2173      C    0.8657672727   -0.0180719449    0.7439529149
C2174      C    0.8771983107   -0.0172253371    0.7673841108
F2175      F    0.8642954294   -0.0129069321    0.7877271868
H2176      H    0.9100000730   -0.0199346685    0.7889979403
H2177      H    0.8725026848   -0.0235014125    0.7051465921
F2178      F    0.9182073284   -0.0305291489    0.7064173456
C2159      C    0.7845268706   -0.1003796296    0.7984033609
C2160      C    0.7865689856   -0.0922254005    0.7741683923
C2161      C    0.7941118235   -0.1091739175    0.7562556287
C2162      C    0.7993986570   -0.1331175820    0.7620534970
C2163      C    0.7973600084   -0.1412705971    0.7862886389
C2164      C    0.7898171704   -0.1243220800    0.8042014024
F2165      F    0.7874493932   -0.1308199866    0.8277980595
H2166      H    0.7787794789   -0.0880065760    0.8128808204
H2167      H    0.8051495150   -0.1454894216    0.7475762107
F2168      F    0.7964796007   -0.1026760110    0.7326589716
C2149      C    0.7825223988   -0.0211858318    0.8649842271
C2150      C    0.7595112340   -0.0172948784    0.8540759904
C2151      C    0.7392813312   -0.0175266499    0.8695090586
C2152      C    0.7417025324   -0.0214322557    0.8946094501
C2153      C    0.7647127748   -0.0253266750    0.9055167878
C2154      C    0.7849426777   -0.0250949035    0.8900837196
F2155      F    0.8075501979   -0.0286875458    0.8992303879
H2156      H    0.7986865084   -0.0211786042    0.8538660646
H2157      H    0.7255375004   -0.0214429491    0.9057267136
F2158      F    0.7166738109   -0.0139340076    0.8603623903
C2139      C   -0.1507081659    0.9581149367    0.9981179565
C2140      C   -0.1615128642    0.9705980050    0.9784754570
C2141      C   -0.1460098822    0.9840606172    0.9632976138
C2142      C   -0.1209405938    0.9851290451    0.9673654916
C2143      C   -0.1101365428    0.9726491484    0.9870097311
C2144      C   -0.1256395248    0.9591865362    1.0021875744
F2145      F   -0.1165933118    0.9467656554    1.0213537346
H2146      H   -0.1618831555    0.9474793222    1.0103473355
H2147      H   -0.1097662516    0.9957678312    0.9551378526
F2148      F   -0.1550560952    0.9964814980    0.9441314535
C2129      C   -0.0306911490    0.8730918759    0.9406366228
C2130      C   -0.0258131543    0.8847405533    0.9635286863
C2131      C   -0.0239038437    0.8698925778    0.9842892014
C2132      C   -0.0266944253    0.8446512425    0.9824886769
C2133      C   -0.0315758490    0.8330031713    0.9595976133
C2134      C   -0.0334851595    0.8478511468    0.9388370983
F2135      F   -0.0381274382    0.8379812342    0.9163067008
H2136      H   -0.0323329502    0.8837392671    0.9240793675
H2137      H   -0.0250560531    0.8340044575    0.9990469322
F2138      F   -0.0192615650    0.8797624904    1.0068195988
C2119      C    0.0166918984    0.9674023163    0.8608704119
C2120      C   -0.0019881771    0.9730923127    0.8771542972
C2121      C   -0.0251467268    0.9777224510    0.8668781382
C2122      C   -0.0296293888    0.9767675219    0.8416246929
C2123      C   -0.0109488102    0.9710811571    0.8253410223
C2124      C    0.0122097395    0.9664510189    0.8356171813
F2125      F    0.0309845901    0.9608833899    0.8211623230
H2126      H    0.0348697348    0.9636855107    0.8678887800
H2127      H   -0.0478067221    0.9804879591    0.8346065395
F2128      F   -0.0439215773    0.9832900800    0.8813329965
C2109      C    0.0054015269    1.1410251977    1.0235398891
C2110      C    0.0273690149    1.1545861304    1.0256667546
C2111      C    0.0492058746    1.1415934438    1.0249821720
C2112      C    0.0493110063    1.1163176186    1.0223132341
C2113      C    0.0273439399    1.1027567287    1.0201900393
C2114      C    0.0055070802    1.1157494153    1.0208746218
F2115      F   -0.0162333900    1.1039900109    1.0189445285
H2116      H   -0.0119242790    1.1501984662    1.0239638874
H2117      H    0.0666372338    1.1071443929    1.0218929065
F2118      F    0.0709463448    1.1533528483    1.0269122654
C2099      C    0.1253988142    1.0157062282    1.0218651636
C2100      C    0.1162699152    1.0186770390    0.9977725342
C2101      C    0.1331611254    1.0240907837    0.9794755081
C2102      C    0.1579727012    1.0264603403    0.9847707889
C2103      C    0.1671009612    1.0234931175    1.0088635808
C2104      C    0.1502097509    1.0180793728    1.0271606069
F2105      F    0.1576149098    1.0149840206    1.0506493931
H2106      H    0.1131104650    1.0115172252    1.0366249536
H2107      H    0.1702604113    1.0306529312    0.9700111614
F2108      F    0.1257559665    1.0271861359    0.9559867219
C2089      C   -0.0016530741    1.0310287719    1.1435851354
C2090      C    0.0215243240    1.0249218499    1.1527696975
C2091      C    0.0382494617    1.0156876785    1.1358858574
C2092      C    0.0323160226    1.0126302139    1.1110286361
C2093      C    0.0091379250    1.0187336562    1.1018449382
C2094      C   -0.0075872127    1.0279678276    1.1187287784
F2095      F   -0.0301285538    1.0342109573    1.1112714892
H2096      H   -0.0151942156    1.0382188710    1.1558656336
H2097      H    0.0458564647    1.0054366351    1.0987490021
F2098      F    0.0607908028    1.0094445488    1.1433431465
C2079      C    0.2434694890    1.1110130244    0.2213643500
C2080      C    0.2243342282    1.0938270850    0.2235545668
C2081      C    0.2004811811    1.1027052970    0.2242542305
C2082      C    0.1957646766    1.1274746065    0.2228503562
C2083      C    0.2148998284    1.1446604332    0.2206638165
C2084      C    0.2387528755    1.1357822212    0.2199641528
F2085      F    0.2579935365    1.1511612404    0.2178884440
H2086      H    0.2621878300    1.1050823469    0.2207467256
H2087      H    0.1770462266    1.1334051713    0.2234716577
F2088      F    0.1812405201    1.0873262778    0.2263299393
C2069      C    0.1137882145    1.0361088654    0.2165833369
C2070      C    0.0948353791    1.0236115153    0.2282919167
C2071      C    0.1013593301    1.0068928607    0.2465101338
C2072      C    0.1255478841    1.0027211716    0.2528640487
C2073      C    0.1445003453    1.0152156336    0.2411531637
C2074      C    0.1379763943    1.0319342882    0.2229349465
F2075      F    0.1551416230    1.0445726818    0.2109350705
H2076      H    0.1096997601    1.0491889254    0.2024101933
H2077      H    0.1296359643    0.9896382236    0.2670348871
F2078      F    0.0841941014    0.9942544671    0.2585100098
C2059      C    0.2396524092    1.0374978691    0.1274651468
C2060      C    0.2503682904    1.0161916721    0.1363213672
C2061      C    0.2571327895    0.9984232249    0.1188665844
C2062      C    0.2534627073    1.0015864299    0.0937737004
C2063      C    0.2427437988    1.0228905949    0.0849179169
C2064      C    0.2359792996    1.0406590421    0.1023726997
F2065      F    0.2256188887    1.0615313710    0.0952558045
H2066      H    0.2341178167    1.0517416150    0.1401880536
H2067      H    0.2589942725    0.9873406520    0.0810512305
F2068      F    0.2674932005    0.9775508961    0.1259834796
C2049      C    0.2624527960    0.9907319994    0.3758208708
C2050      C    0.2594878512    0.9693113537    0.3613192639
C2051      C    0.2625047447    0.9468641702    0.3730590330
C2052      C    0.2681996521    0.9456570941    0.3980261194
C2053      C    0.2711680320    0.9670774041    0.4125266193
C2054      C    0.2681511385    0.9895245876    0.4007868502
F2055      F    0.2707103373    1.0107962639    0.4134973984
H2056      H    0.2603157522    1.0084925788    0.3676278112
H2057      H    0.2703401311    0.9278961790    0.4062180721
F2058      F    0.2599455460    0.9255924939    0.3603484848
C2039      C    0.3697796332    0.9682014339    0.2772758611
C2040      C    0.3614888710    0.9692238952    0.2526777891
C2041      C    0.3789534054    0.9672337540    0.2342359831
C2042      C    0.4035202715    0.9643606933    0.2398712085
C2043      C    0.4118112803    0.9633418511    0.2644688398
C2044      C    0.3943467459    0.9653319924    0.2829106457
F2045      F    0.4009385320    0.9645079328    0.3068773449
H2046      H    0.3570254619    0.9696523731    0.2921657192
H2047      H    0.4162746894    0.9629133733    0.2249809096
F2048      F    0.3723616193    0.9680578136    0.2102692840
C2029      C    0.3822661726    0.9670456372    0.5153254176
C2030      C    0.3973786171    0.9757663510    0.4967665117
C2031      C    0.3862309221    0.9815682604    0.4741262430
C2032      C    0.3612522767    0.9788656878    0.4700249897
C2033      C    0.3461406717    0.9701417761    0.4885823098
C2034      C    0.3572883667    0.9643398668    0.5112225785
F2035      F    0.3439743083    0.9558899797    0.5298530344
H2036      H    0.3899887530    0.9623185263    0.5331086010
H2037      H    0.3535305358    0.9835896009    0.4522402205
F2038      F    0.3995449805    0.9900181475    0.4554957871
C2019      C    0.4769896184    0.9614569324    0.3812769729
C2020      C    0.4980079983    0.9751764914    0.3882390926
C2021      C    0.5124979774    0.9843005308    0.3693377479
C2022      C    0.5064690145    0.9800453317    0.3446534161
C2023      C    0.4854530060    0.9663230486    0.3376915369
C2024      C    0.4709630269    0.9571990092    0.3565928816
F2025      F    0.4505632485    0.9439052064    0.3513231717
H2026      H    0.4652188252    0.9540234328    0.3951662834
H2027      H    0.5182421791    0.9874761072    0.3307643461
F2028      F    0.5328977558    0.9975943336    0.3746074578
C2009      C    0.5224256800    1.0441362477    0.6231199239
C2010      C    0.5136113838    1.0220198528    0.6124476950
C2011      C    0.5094764494    1.0023877184    0.6282404213
C2012      C    0.5138632995    1.0045339998    0.6534616464
C2013      C    0.5226807840    1.0266488571    0.6641331311
C2014      C    0.5268157184    1.0462809915    0.6483404048
F2015      F    0.5352477721    1.0680214412    0.6572456213
H2016      H    0.5259056581    1.0598134153    0.6117218005
H2017      H    0.5103865097    0.9888552946    0.6648590256
F2018      F    0.5010443957    0.9806472687    0.6193352048
C1999      C    0.5533979603    1.1125551626    0.5460053890
C2000      C    0.5363276381    1.1033355500    0.5283694676
C2001      C    0.5231117499    1.1203521666    0.5146597173
C2002      C    0.5266224831    1.1453696661    0.5182331637
C2003      C    0.5436898874    1.1545890226    0.5358712194
C2004      C    0.5569057756    1.1375724060    0.5495809698
F2005      F    0.5735647759    1.1450537222    0.5667942496
H2006      H    0.5640440444    1.1001766511    0.5570474564
H2007      H    0.5159734812    1.1577479215    0.5071932307
F2008      F    0.5064527496    1.1128708505    0.4974464374
C1989      C    0.6267603518    1.0215463489    0.5216556314
C1990      C    0.6153383600    1.0219784119    0.4982771304
C1991      C    0.6303949440    1.0238372760    0.4777669179
C1992      C    0.6556213493    1.0252075588    0.4802675707
C1993      C    0.6670428980    1.0247791052    0.5036458156
C1994      C    0.6519863140    1.0229202411    0.5241560281
F1995      F    0.6616328963    1.0224020998    0.5471216066
H1996      H    0.6159467670    1.0201336508    0.5380459440
H1997      H    0.6664344911    1.0266238663    0.4638770021
F1998      F    0.6207483617    1.0243554173    0.4548013394
C1979      C    0.2052872644    0.2017033693    1.1087561746
C1980      C    0.2200311851    0.2210443889    1.1005888084
C1981      C    0.2314060631    0.2364325034    1.1186024673
C1982      C    0.2283356165    0.2328513052    1.1435781495
C1983      C    0.2135891552    0.2135128456    1.1517452117
C1984      C    0.2022142772    0.1981247311    1.1337315528
F1985      F    0.1878293095    0.1792239255    1.1401745842
H1986      H    0.1961208039    0.1893300570    1.0955844741
H1987      H    0.2374995364    0.2452271775    1.1567495460
F1988      F    0.2457910309    0.2553333090    1.1121594359
C1969      C    0.1226479429    0.2613754195    1.0130824195
C1970      C    0.1410840309    0.2444791246    1.0175952664
C1971      C    0.1339551068    0.2213212811    1.0259634072
C1972      C    0.1096766835    0.2151504955    1.0297010745
C1973      C    0.0912413722    0.2320476712    1.0251917559
C1974      C    0.0983702963    0.2552055147    1.0168236152
F1975      F    0.0817221078    0.2723261712    1.0121129741
H1976      H    0.1272125783    0.2794767624    1.0066102824
H1977      H    0.1051128249    0.1970500335    1.0361767399
F1978      F    0.1506032954    0.2042006246    1.0306740482
C1959      C    0.2281850293    0.1323242337    1.0286449902
C1960      C    0.2465777249    0.1429658902    1.0145544158
C1961      C    0.2618389916    0.1271380658    1.0016151401
C1962      C    0.2590341978    0.1019121911    1.0025695416
C1963      C    0.2406441626    0.0912707839    1.0166626965
C1964      C    0.2253828959    0.1070986082    1.0296019722
F1965      F    0.2073693878    0.0982240593    1.0434792717
H1966      H    0.2159473775    0.1437498845    1.0389577368
H1967      H    0.2712745100    0.0904867895    0.9922593755
F1968      F    0.2798524997    0.1360126147    0.9877378406
C1949      C    0.3948502784    0.2466667645    0.9955991821
C1950      C    0.4061019847    0.2572112891    0.9752915905
C1951      C    0.3909211183    0.2647644498    0.9558005739
C1952      C    0.3657369637    0.2620115303    0.9563694525
C1953      C    0.3544857806    0.2514639662    0.9766750310
C1954      C    0.3696666470    0.2439108054    0.9961660476
F1955      F    0.3601857474    0.2336597995    1.0162204881
H1956      H    0.4057644208    0.2405475581    1.0110932017
H1957      H    0.3548233445    0.2681276971    0.9408734198
F1958      F    0.4004020179    0.2750154557    0.9357461335
C1939      C    0.2775087643    0.3878380975    0.9491913509
C1940      C    0.2674323051    0.4069550287    0.9629840735
C1941      C    0.2508287496    0.4006130522    0.9812513240
C1942      C    0.2444752539    0.3764433299    0.9856790083
C1943      C    0.2545487995    0.3573270402    0.9718841270
C1944      C    0.2711523551    0.3636690167    0.9536168765
F1945      F    0.2815386913    0.3463401429    0.9396813082
H1946      H    0.2903992147    0.3917830414    0.9348925811
H1947      H    0.2315818900    0.3724990274    0.9999756195
F1948      F    0.2404424134    0.4179419260    0.9951868923
C1929      C    0.4683167817    0.3397460995    1.0028140266
C1930      C    0.4733491600    0.3285188344    0.9800741246
C1931      C    0.4813997852    0.3436342360    0.9611375660
C1932      C    0.4843416897    0.3687325821    0.9645399803
C1933      C    0.4793059926    0.3799599960    0.9872782909
C1934      C    0.4712553674    0.3648445944    1.0062148495
F1935      F    0.4660845028    0.3743067814    1.0284898252
H1936      H    0.4620591623    0.3288802092    1.0179957124
H1937      H    0.4905959903    0.3795986211    0.9493567030
F1938      F    0.4865706497    0.3341720489    0.9388625903
C1919      C    0.3846213405    0.4799150829    0.9451647044
C1920      C    0.3962971990    0.4675611679    0.9643893663
C1921      C    0.3814549424    0.4559285327    0.9815728034
C1922      C    0.3561933494    0.4564895029    0.9798203040
C1923      C    0.3445178383    0.4688461837    0.9605980990
C1924      C    0.3593600948    0.4804788188    0.9434146619
F1925      F    0.3494646794    0.4926637088    0.9245091094
H1926      H    0.3952632186    0.4891731517    0.9314488788
H1927      H    0.3455518186    0.4472341999    0.9935385865
F1928      F    0.3913503578    0.4437436428    1.0004783559
C1909      C    0.5409055868    0.6119203361    1.0129953670
C1910      C    0.5234116986    0.6012275896    0.9966461249
C1911      C    0.5065997423    0.6167999142    0.9853886253
C1912      C    0.5070692219    0.6418295894    0.9900912717
C1913      C    0.5245605028    0.6525215750    1.0064429184
C1914      C    0.5413724591    0.6369492505    1.0177004180
F1915      F    0.5586498249    0.6458873278    1.0335666315
H1916      H    0.5542687740    0.6006885024    1.0221421436
H1917      H    0.4937034274    0.6530606623    0.9809468997
F1918      F    0.4893223765    0.6078618369    0.9695224118
C1899      C    0.5241713836    0.4737286589    1.1114111860
C1900      C    0.5283136523    0.4927853640    1.0949744215
C1901      C    0.5365678702    0.5154241853    1.1049817801
C1902      C    0.5405473727    0.5190527618    1.1301226594
C1903      C    0.5364017674    0.4999974739    1.1465593511
C1904      C    0.5281475495    0.4773586526    1.1365519925
F1905      F    0.5237892920    0.4582667285    1.1511654481
H1906      H    0.5177989077    0.4559252972    1.1046011137
H1907      H    0.5469165119    0.5368575408    1.1369326589
F1908      F    0.5409261277    0.5345161095    1.0903683245
C1889      C    0.8086349372    0.3556832600    0.4897015371
C1890      C    0.7852758915    0.3447089247    0.4884587438
C1891      C    0.7659062315    0.3589962235    0.4799941107
C1892      C    0.7694802404    0.3830624193    0.4730681084
C1893      C    0.7928382087    0.3940375813    0.4743143090
C1894      C    0.8122078688    0.3797502825    0.4827789422
F1895      F    0.8350840226    0.3890297429    0.4844617665
H1896      H    0.8241682012    0.3454282667    0.4961083306
H1897      H    0.7539458991    0.3933182393    0.4666647223
F1898      F    0.7430300777    0.3497167631    0.4783112863
C1879      C    0.7770183634    0.2775678683    0.3475471818
C1880      C    0.7764456179    0.2587173105    0.3296181360
C1881      C    0.7766209769    0.2345331965    0.3378849429
C1882      C    0.7773310629    0.2292302430    0.3627725366
C1883      C    0.7779073980    0.2480804807    0.3807011158
C1884      C    0.7777320389    0.2722645947    0.3724343089
F1885      F    0.7782512895    0.2912620826    0.3885408467
H1886      H    0.7769120287    0.2965224969    0.3421069830
H1887      H    0.7774409871    0.2102752943    0.3682122688
F1888      F    0.7761017263    0.2155357086    0.3217784051
C1869      C    0.7273897203    0.1225401456    0.4749357703
C1870      C    0.7381917412    0.1388848382    0.4923958733
C1871      C    0.7474452156    0.1290691049    0.5143469373
C1872      C    0.7460761015    0.1041988199    0.5188287552
C1873      C    0.7352711125    0.0878549676    0.5013705457
C1874      C    0.7260176381    0.0976707009    0.4794194817
F1875      F    0.7154211400    0.0831304167    0.4618511019
H1876      H    0.7199834100    0.1292105058    0.4577167806
H1877      H    0.7534794436    0.0975293000    0.5360496384
F1878      F    0.7580417137    0.1436093891    0.5319153171
C1859      C    0.6463397492    0.1987207429    0.5192769224
C1860      C    0.6606166878    0.2202715879    0.5213869951
C1861      C    0.6491925175    0.2415449513    0.5297754476
C1862      C    0.6247402462    0.2415051401    0.5358074291
C1863      C    0.6104627811    0.2199555470    0.5336939512
C1864      C    0.6218869514    0.1986821836    0.5253054987
F1865      F    0.6093653095    0.1773632262    0.5228232451
H1866      H    0.6543051298    0.1818358227    0.5128903280
H1867      H    0.6167743391    0.2583913122    0.5421906182
F1868      F    0.6617141594    0.2628639087    0.5322577012
C1849      C    0.7273292771    0.2585743192    0.6109614442
C1850      C    0.7364787354    0.2409074506    0.5947057127
C1851      C    0.7393126676    0.2171334853    0.6035543210
C1852      C    0.7333631051    0.2111024737    0.6274146121
C1853      C    0.7242172141    0.2287698566    0.6436710761
C1854      C    0.7213832819    0.2525438220    0.6348224678
F1855      F    0.7127205057    0.2704177659    0.6493405854
H1856      H    0.7248130702    0.2771708490    0.6050135268
H1857      H    0.7358828793    0.1925064583    0.6333632619
F1858      F    0.7479754439    0.1992595414    0.5890362033
C1839      C    0.7426970459    0.3642281740    0.2512664637
C1840      C    0.7587162051    0.3813367903    0.2629571557
C1841      C    0.7797047006    0.3723698549    0.2747224338
C1842      C    0.7846293551    0.3475888226    0.2749163058
C1843      C    0.7686087090    0.3304803053    0.2632289452
C1844      C    0.7476202134    0.3394472407    0.2514636670
F1845      F    0.7314491871    0.3241454926    0.2398840200
H1846      H    0.7262611241    0.3702287348    0.2419385774
H1847      H    0.8010637900    0.3415883609    0.2842475235
F1848      F    0.7958757270    0.3876716030    0.2863020808
C1829      C    0.8026056877    0.4500062213    0.3606614525
C1830      C    0.7811453287    0.4607572132    0.3518891470
C1831      C    0.7642404578    0.4683448756    0.3693971698
C1832      C    0.7683762574    0.4654295086    0.3944615704
C1833      C    0.7898345306    0.4546754939    0.4032334068
C1834      C    0.8067394014    0.4470878316    0.3857253840
F1835      F    0.8277004995    0.4366432037    0.3927611330
H1836      H    0.8162078506    0.4438523213    0.3478950017
H1837      H    0.7547720086    0.4715803859    0.4072275521
F1838      F    0.7432793597    0.4787895035    0.3623614208
C1819      C    0.6416857828    0.5138004111    0.2208337150
C1820      C    0.6502546661    0.4897858781    0.2209207054
C1821      C    0.6331032018    0.4706949668    0.2164987890
C1822      C    0.6085727047    0.4751563839    0.2121836197
C1823      C    0.6000034836    0.4991702358    0.2121002142
C1824      C    0.6171549478    0.5182611471    0.2165221306
F1825      F    0.6102856404    0.5417275344    0.2167181294
H1826      H    0.6541931047    0.5291525071    0.2241496596
H1827      H    0.5960650450    0.4598036068    0.2088712600
F1828      F    0.6399725092    0.4472285794    0.2163027902
C1809      C    0.7269557441    0.6035228176    0.2171941478
C1810      C    0.7462159684    0.5963656880    0.2327409579
C1811      C    0.7590451391    0.6148294628    0.2462647921
C1812      C    0.7530909357    0.6392795635    0.2444912527
C1813      C    0.7338334233    0.6464368448    0.2289420422
C1814      C    0.7210042526    0.6279730699    0.2154182079
F1815      F    0.7023389200    0.6334509768    0.2001538457
H1816      H    0.7165064859    0.5899703262    0.2063806250
H1817      H    0.7635429058    0.6528322065    0.2553023750
F1818      F    0.7777104717    0.6093515560    0.2615291543
C1799      C    0.0193166821    0.6248773733    0.7516143014
C1800      C    0.0282631949    0.6431472747    0.7362109276
C1801      C    0.0407710010    0.6355929466    0.7151680140
C1802      C    0.0442736998    0.6110646527    0.7096082723
C1803      C    0.0353304709    0.5927953243    0.7250132574
C1804      C    0.0228226648    0.6003496524    0.7460561710
F1805      F    0.0137410493    0.5838823093    0.7616595787
H1806      H    0.0095484940    0.6297683254    0.7680648407
H1807      H    0.0540451718    0.6061742735    0.6931593444
F1808      F    0.0498526165    0.6520602896    0.6995646063
C1789      C    0.0327935432    0.7561775510    0.5906163277
C1790      C    0.0368447941    0.7319013749    0.5831789215
C1791      C    0.0375834616    0.7141916612    0.6015734601
C1792      C    0.0344549858    0.7202229088    0.6262226378
C1793      C    0.0304073832    0.7444991298    0.6336602489
C1794      C    0.0296687157    0.7622088435    0.6152657103
F1795      F    0.0258648690    0.7858309988    0.6210078442
H1796      H    0.0320672906    0.7705043410    0.5771277632
H1797      H    0.0351848866    0.7058961637    0.6397114073
F1798      F    0.0413873083    0.6905695059    0.5958313263
C1779      C   -0.0181079436    0.8711918666    0.7229107952
C1780      C   -0.0129649302    0.8558984973    0.7427525331
C1781      C   -0.0093789051    0.8670019229    0.7661410020
C1782      C   -0.0108154333    0.8921094785    0.7697439417
C1783      C   -0.0159548088    0.9074028192    0.7499019982
C1784      C   -0.0195408339    0.8962993936    0.7265135293
F1785      F   -0.0245357345    0.9097838083    0.7066469957
H1786      H   -0.0210177845    0.8635104198    0.7045109389
H1787      H   -0.0079019545    0.8997908968    0.7881435924
F1788      F   -0.0043840045    0.8535175082    0.7860075356
C1769      C   -0.1101678184    0.7632268909    0.7679041851
C1770      C   -0.0907420650    0.7802516151    0.7704057930
C1771      C   -0.0958513814    0.8034623196    0.7803258067
C1772      C   -0.1191335374    0.8095621007    0.7874531570
C1773      C   -0.1385595500    0.7925389005    0.7849482354
C1774      C   -0.1334502336    0.7693281961    0.7750282217
F1775      F   -0.1511426176    0.7520845703    0.7720867700
H1776      H   -0.1071614096    0.7450809735    0.7603514310
H1777      H   -0.1221402055    0.8277095422    0.7950025974
F1778      F   -0.0781589974    0.8207059454    0.7832672584
C1759      C   -0.0009990450    0.7561120631    0.8627060006
C1760      C   -0.0195450801    0.7511582489    0.8449713118
C1761      C   -0.0436351599    0.7496327174    0.8531844780
C1762      C   -0.0491364102    0.7528624870    0.8778367143
C1763      C   -0.0305903922    0.7578126446    0.8955714723
C1764      C   -0.0065003123    0.7593381761    0.8873583061
F1765      F    0.0122088261    0.7640283327    0.9032878619
H1766      H    0.0178720966    0.7574673635    0.8572979025
H1767      H   -0.0680075689    0.7515035301    0.8832448817
F1768      F   -0.0623442984    0.7449425609    0.8372549223
C1749      C    0.5020631681    0.8606345281    0.4601545875
C1750      C    0.4798737718    0.8476330654    0.4568366117
C1751      C    0.4582701530    0.8608514580    0.4588659326
C1752      C    0.4585983792    0.8858136620    0.4639497385
C1753      C    0.4807872699    0.8988141360    0.4672711974
C1754      C    0.5023908886    0.8855957434    0.4652418766
F1755      F    0.5243225120    0.8968224202    0.4681903981
H1756      H    0.5192233600    0.8512677797    0.4587738134
H1757      H    0.4414376816    0.8951794216    0.4653339957
F1758      F    0.4363385296    0.8496247811    0.4559174111
C1739      C    0.1225972188    0.7404035710    0.7022578801
C1740      C    0.1095637412    0.7254988853    0.7183364941
C1741      C    0.1230967237    0.7105753185    0.7341299544
C1742      C    0.1483903697    0.7104010909    0.7340254813
C1743      C    0.1614233711    0.7253028124    0.7179446792
C1744      C    0.1478903885    0.7402263791    0.7021512189
F1745      F    0.1591268899    0.7549844089    0.6862512443
H1746      H    0.1129958477    0.7522389792    0.6897183036
H1747      H    0.1579912645    0.6985627185    0.7465628697
F1748      F    0.1118602224    0.6958172888    0.7500299290
C1729      C    0.2639779772    0.8427041702    0.2634124206
C1730      C    0.2867808397    0.8325863285    0.2687315936
C1731      C    0.3063746708    0.8488571611    0.2742582640
C1732      C    0.3035418112    0.8740111737    0.2745126407
C1733      C    0.2807402278    0.8841288177    0.2691900487
C1734      C    0.2611463968    0.8678579850    0.2636633783
F1735      F    0.2387718646    0.8762189984    0.2583849916
H1736      H    0.2483002273    0.8309237056    0.2590368620
H1737      H    0.3192208402    0.8857914405    0.2788847803
F1738      F    0.3287492030    0.8404961477    0.2795366506
C1719      C    0.5114658627    0.7381494607    0.1183834321
C1720      C    0.5091231498    0.7157517215    0.1303839829
C1721      C    0.5118697724    0.6942700772    0.1161868767
C1722      C    0.5167169101    0.6949123100    0.0912354425
C1723      C    0.5190560227    0.7173094963    0.0792344311
C1724      C    0.5163094001    0.7387911407    0.0934315373
F1725      F    0.5183102225    0.7609083123    0.0831947435
H1726      H    0.5095034541    0.7552269784    0.1285270664
H1727      H    0.5186757185    0.6778342395    0.0810913476
F1728      F    0.5098689500    0.6721529056    0.1264236705
C1709      C    0.6238581736    0.7262237403    0.2197611877
C1710      C    0.6126158870    0.7145520156    0.2394441826
C1711      C    0.6273654432    0.7004140049    0.2548893494
C1712      C    0.6521278196    0.6979309243    0.2510390224
C1713      C    0.6633691014    0.7095995061    0.2313543131
C1714      C    0.6486195451    0.7237375167    0.2159091463
F1715      F    0.6581188899    0.7354484347    0.1966886533
H1716      H    0.6132672271    0.7373316781    0.2073294529
H1717      H    0.6627177613    0.6868198435    0.2634690428
F1718      F    0.6178660984    0.6887030870    0.2741098424
C1699      C    0.5525260791    0.6162509007    0.2026609268
C1700      C    0.5322679078    0.6264817061    0.2140353813
C1701      C    0.5146402749    0.6103001974    0.2232674856
C1702      C    0.5169460523    0.5851247393    0.2213359628
C1703      C    0.5372020196    0.5748942023    0.2099585429
C1704      C    0.5548296525    0.5910757111    0.2007264386
F1705      F    0.5747213729    0.5826043267    0.1896004755
H1706      H    0.5666194141    0.6279595253    0.1952462497
H1707      H    0.5028505133    0.5734163832    0.2287476746
F1708      F    0.4947485545    0.6187715818    0.2343934488
C1689      C    0.5103477364    0.7862584842    0.3552592524
C1690      C    0.5014723440    0.7647752924    0.3433452642
C1691      C    0.4850551864    0.7499682037    0.3561923663
C1692      C    0.4777429724    0.7561336811    0.3797695795
C1693      C    0.4866209597    0.7776145853    0.3916846615
C1694      C    0.5030381173    0.7924216740    0.3788375593
F1695      F    0.5122977447    0.8132723435    0.3890786581
H1696      H    0.5230483972    0.7982871167    0.3461253021
H1697      H    0.4650449065    0.7441027610    0.3889046235
F1698      F    0.4757955590    0.7291175342    0.3459512675
C1679      C    0.4605952498    0.8540128847    0.2574214758
C1680      C    0.4816354853    0.8419700708    0.2653831347
C1681      C    0.5010715741    0.8564592170    0.2752198011
C1682      C    0.4997564862    0.8817302162    0.2770980548
C1683      C    0.4787180556    0.8937729938    0.2691332337
C1684      C    0.4592819669    0.8792838475    0.2592965673
F1685      F    0.4385516572    0.8895416199    0.2512973226
H1686      H    0.4451111684    0.8436517477    0.2496985165
H1687      H    0.5152423725    0.8920913169    0.2848178519
F1688      F    0.5218018838    0.8462014447    0.2832190458
C1669      C    0.3956743997    0.7605550157    0.2693085819
C1670      C    0.4012357057    0.7577100152    0.2443201574
C1671      C    0.3816566414    0.7568679526    0.2271610802
C1672      C    0.3576498007    0.7587554359    0.2343937377
C1673      C    0.3520884428    0.7615967808    0.2593819210
C1674      C    0.3716675071    0.7624388433    0.2765409982
F1675      F    0.3677393408    0.7651306504    0.3007891174
H1676      H    0.4101320170    0.7613074379    0.2832524000
H1677      H    0.3431921315    0.7579993580    0.2204496784
F1678      F    0.3855848077    0.7541761456    0.2029129610
C1659      C    0.2229053110    0.6228353775    0.4834880723
C1660      C    0.2366662265    0.6392307096    0.4986697015
C1661      C    0.2468224759    0.6301659854    0.5205751427
C1662      C    0.2435161844    0.6059666429    0.5271704374
C1663      C    0.2297525857    0.5895725994    0.5119908740
C1664      C    0.2195963363    0.5986373236    0.4900854327
F1665      F    0.2061993976    0.5840028474    0.4746326557
H1666      H    0.2146953496    0.6289400284    0.4664005108
H1667      H    0.2517234626    0.5998632806    0.5442600646
F1668      F    0.2602194147    0.6448004616    0.5360279198
C1649      C    0.1430639537    0.7068574313    0.5020464226
C1650      C    0.1575482999    0.7220673998    0.5177927215
C1651      C    0.1454893411    0.7376644519    0.5341669720
C1652      C    0.1202330629    0.7381943332    0.5349330682
C1653      C    0.1057490613    0.7229872570    0.5191845942
C1654      C    0.1178080201    0.7073902049    0.5028103438
F1655      F    0.1051336866    0.6923068446    0.4871820667
H1656      H    0.1514971295    0.6945035165    0.4890851154
H1657      H    0.1118002318    0.7505511403    0.5478922003
F1658      F    0.1581636747    0.7527478122    0.5497952491
C1639      C    0.2347129804    0.7182378192    0.6104809557
C1640      C    0.2378490383    0.7424732713    0.6029256023
C1641      C    0.2374271087    0.7610249032    0.6211697941
C1642      C    0.2340541768    0.7558381157    0.6457867275
C1643      C    0.2309146281    0.7316034375    0.6533413543
C1644      C    0.2313365577    0.7130518056    0.6350971625
F1645      F    0.2284558532    0.6894143861    0.6409583193
H1646      H    0.2348951080    0.7032810735    0.5971100375
H1647      H    0.2338685584    0.7707956353    0.6591569190
F1648      F    0.2403078132    0.7846623228    0.6153086373
C1629      C    0.2632873177    0.7558692948    0.3706529395
C1630      C    0.2832180421    0.7482379601    0.3850298189
C1631      C    0.3056552652    0.7457155811    0.3733329245
C1632      C    0.3082633973    0.7505260857    0.3485249741
C1633      C    0.2883322301    0.7581538007    0.3341476219
C1634      C    0.2658950070    0.7606761797    0.3458445164
F1635      F    0.2460057098    0.7679116930    0.3332473040
H1636      H    0.2455975524    0.7580869309    0.3788187604
H1637      H    0.3259527199    0.7483048299    0.3403586805
F1638      F    0.3255445624    0.7384800678    0.3859301369
C1619      C    0.2708957028    0.8615548919    0.4722689131
C1620      C    0.2812384214    0.8517498102    0.4937044221
C1621      C    0.2912519904    0.8682653847    0.5115019422
C1622      C    0.2910452698    0.8933575668    0.5082441587
C1623      C    0.2807059600    0.9031622195    0.4868074991
C1624      C    0.2706923910    0.8866466449    0.4690099791
F1625      F    0.2604726027    0.8947023377    0.4480166616
H1626      H    0.2629400240    0.8495773500    0.4579970726
H1627      H    0.2990043574    0.9053346796    0.5225148486
F1628      F    0.3014717788    0.8602096919    0.5324952597
C1609      C    0.4025493276    0.7965474710    0.4725444828
C1610      C    0.4146688490    0.7805436384    0.4566671904
C1611      C    0.4009218936    0.7611655967    0.4456359155
C1612      C    0.3762887123    0.7577680289    0.4501082915
C1613      C    0.3641703342    0.7737694433    0.4659880534
C1614      C    0.3779172895    0.7931474850    0.4770193283
F1615      F    0.3675415524    0.8092041470    0.4924337008
H1616      H    0.4123504197    0.8117731059    0.4815013634
H1617      H    0.3664887634    0.7425399758    0.4411538804
F1618      F    0.4112976307    0.7451089347    0.4302215430
C1599      C    0.4750901617    0.5019607237    0.8420358354
C1600      C    0.4756058301    0.4777881248    0.8329266173
C1601      C    0.4780716569    0.4591119529    0.8501654460
C1602      C    0.4799437890    0.4641200176    0.8752911387
C1603      C    0.4794317132    0.4882923553    0.8843998731
C1604      C    0.4769658864    0.5069685273    0.8671610444
F1605      F    0.4763321331    0.5305553601    0.8745261022
H1606      H    0.4732183491    0.5170083837    0.8294857850
H1607      H    0.4818191942    0.4490720965    0.8878407054
F1608      F    0.4787054103    0.4355251200    0.8428003882
C1589      C    0.2638652638    0.2776870859    0.8475401445
C1590      C    0.2857146055    0.2886059411    0.8398595263
C1591      C    0.3033829889    0.2949975470    0.8581214146
C1592      C    0.2996097941    0.2907783163    0.8828738772
C1593      C    0.2777594726    0.2798629650    0.8905546309
C1594      C    0.2600910891    0.2734713591    0.8722927426
F1595      F    0.2387220976    0.2629446089    0.8782687426
H1596      H    0.2496727411    0.2724252701    0.8341614915
H1597      H    0.3138013370    0.2960436360    0.8962526657
F1598      F    0.3247519805    0.3055242972    0.8521454146
C1579      C    0.2134387508    0.6205108118    0.7325770544
C1580      C    0.2312989636    0.6083789657    0.7191425150
C1581      C    0.2474667248    0.6228012184    0.7055859980
C1582      C    0.2460338098    0.6480924798    0.7053284885
C1583      C    0.2281717162    0.6602237514    0.7187598624
C1584      C    0.2120039550    0.6458014986    0.7323163795
F1585      F    0.1944283806    0.6561461524    0.7456254308
H1586      H    0.2005423616    0.6102035479    0.7433237164
H1587      H    0.2589283182    0.6583991692    0.6945786611
F1588      F    0.2650422993    0.6124565646    0.6922769467
C1569      C    0.1098469973    0.5096128217    0.7399736651
C1570      C    0.1011185920    0.5285149067    0.7252599473
C1571      C    0.1182541798    0.5457045246    0.7168931398
C1572      C    0.1429205133    0.5442633420    0.7228144059
C1573      C    0.1516481961    0.5253637023    0.7375307837
C1574      C    0.1345126084    0.5081740843    0.7458975912
F1575      F    0.1415310813    0.4895672653    0.7600657503
H1576      H    0.0973581392    0.4959061078    0.7468812088
H1577      H    0.1554086490    0.5579725011    0.7159095222
F1578      F    0.1112357068    0.5643113437    0.7027249807
C1559      C    0.2437061788    0.5475862810    0.6233763601
C1560      C    0.2493032244    0.5253642606    0.6344908601
C1561      C    0.2471933965    0.5039755925    0.6197792087
C1562      C    0.2398748122    0.5045404649    0.5951740967
C1563      C    0.2342744653    0.5267616079    0.5840608485
C1564      C    0.2363842932    0.5481502760    0.5987724999
F1565      F    0.2313274488    0.5700987485    0.5893892125
H1566      H    0.2450502484    0.5645864473    0.6339443653
H1567      H    0.2385274413    0.4875394212    0.5846073434
F1568      F    0.2522502410    0.4820271200    0.6291624962
C1549      C    0.2765054979    0.3642845452    0.7506551350
C1550      C    0.2888746322    0.3546325091    0.7710695502
C1551      C    0.2980866711    0.3712388932    0.7891995656
C1552      C    0.2951941895    0.3962731023    0.7872267799
C1553      C    0.2828284294    0.4059251184    0.7668110374
C1554      C    0.2736163905    0.3893187342    0.7486810220
F1555      F    0.2615678592    0.3972267167    0.7286137180
H1556      H    0.2690649871    0.3522324202    0.7361772390
H1557      H    0.3026380745    0.4083252072    0.8017033487
F1558      F    0.3101352024    0.3633309107    0.8092668696
C1539      C    0.2570363129    0.4582822411    0.8568005379
C1540      C    0.2601985388    0.4813374218    0.8462798160
C1541      C    0.2686777102    0.5006656690    0.8618194118
C1542      C    0.2738004021    0.4973397019    0.8866548862
C1543      C    0.2706348286    0.4742858113    0.8971760974
C1544      C    0.2621556573    0.4549575640    0.8816365016
F1545      F    0.2586920579    0.4323657270    0.8904168258
H1546      H    0.2505367848    0.4427930654    0.8455862326
H1547      H    0.2802965826    0.5128301676    0.8978696807
F1548      F    0.2721413096    0.5232575060    0.8530390875
C1529      C    0.3786240671    0.5018747135    0.7467852814
C1530      C    0.3617337490    0.4822911353    0.7473826457
C1531      C    0.3704039012    0.4595394024    0.7548842676
C1532      C    0.3946941672    0.4563015607    0.7614995082
C1533      C    0.4115847878    0.4758838752    0.7608986835
C1534      C    0.4029146356    0.4986356081    0.7533970616
F1535      F    0.4180324914    0.5182231404    0.7523731766
H1536      H    0.3728370406    0.5197853198    0.7411287661
H1537      H    0.4004814962    0.4383896907    0.7671525631
F1538      F    0.3552860454    0.4399518701    0.7559081526
C1519      C    0.4992218149    0.2484150420    0.8749503515
C1520      C    0.4797980155    0.2517283159    0.8581459260
C1521      C    0.4570354132    0.2575803610    0.8678129842
C1522      C    0.4536358962    0.2600452850    0.8929762027
C1523      C    0.4730584362    0.2567285560    0.9097803592
C1524      C    0.4958210385    0.2508765109    0.9001133010
F1525      F    0.5152610924    0.2474377407    0.9150890824
H1526      H    0.5171337677    0.2438807942    0.8684113149
H1527      H    0.4357226840    0.2645760777    0.8995149703
F1528      F    0.4375953593    0.2610191312    0.8528372028
C1509      C    0.4868449015    0.3750486605    0.7348546400
C1510      C    0.4831136053    0.3576581999    0.7531397678
C1511      C    0.4760789247    0.3662513021    0.7764278116
C1512      C    0.4728777105    0.3909413267    0.7814083355
C1513      C    0.4766124030    0.4083317011    0.7631246248
C1514      C    0.4836470835    0.3997385989    0.7398365810
F1515      F    0.4875477080    0.4153251524    0.7214193814
H1516      H    0.4922845656    0.3693406939    0.7165969123
H1517      H    0.4674414427    0.3966492072    0.7996674803
F1518      F    0.4721783003    0.3506647486    0.7948450112
C1499      C    0.3871286908    0.2628286906    0.7618429009
C1500      C    0.4043599190    0.2797718062    0.7718495679
C1501      C    0.3955365538    0.3013672706    0.7825387755
C1502      C    0.3707768652    0.3059981562    0.7832969910
C1503      C    0.3535462382    0.2890569986    0.7732873146
C1504      C    0.3623696035    0.2674615342    0.7625981071
F1505      F    0.3469450327    0.2503948466    0.7526490324
H1506      H    0.3930163898    0.2458986482    0.7533929258
H1507      H    0.3648897675    0.3229301566    0.7917439567
F1508      F    0.4109611245    0.3184339582    0.7924878501
C1489      C    0.6177902060    0.2033213090    0.7205941911
C1490      C    0.6056082825    0.2256383356    0.7216428748
C1491      C    0.6191600162    0.2469781182    0.7166801571
C1492      C    0.6436653949    0.2462765041    0.7109368319
C1493      C    0.6558478968    0.2239603159    0.7098917195
C1494      C    0.6422961630    0.2026205334    0.7148544372
F1495      F    0.6527416132    0.1805870406    0.7141926201
H1496      H    0.6081387065    0.1863537729    0.7242750190
H1497      H    0.6533174727    0.2632448787    0.7072595754
F1498      F    0.6087145661    0.2690116110    0.7173419743
C1479      C    0.5556668466    0.2397560914    0.6414055917
C1480      C    0.5314986041    0.2445260371    0.6476645313
C1481      C    0.5133839604    0.2411439480    0.6291309089
C1482      C    0.5189254113    0.2333905362    0.6054643146
C1483      C    0.5430935893    0.2286241503    0.5992045986
C1484      C    0.5612082330    0.2320062393    0.6177382211
F1485      F    0.5847557411    0.2277945848    0.6130977159
H1486      H    0.5702929221    0.2420919409    0.6550486521
H1487      H    0.5042992713    0.2310582464    0.5918204778
F1488      F    0.4898364523    0.2453556026    0.6337714140
C1469      C    0.5442291128    0.1312325085    0.7567571261
C1470      C    0.5243954358    0.1442516810    0.7473497721
C1471      C    0.5062881372    0.1309649143    0.7337913035
C1472      C    0.5077328529    0.1059204942    0.7297191813
C1473      C    0.5275678972    0.0929022436    0.7391232882
C1474      C    0.5456751958    0.1061890103    0.7526817568
F1475      F    0.5652025586    0.0949502182    0.7622566270
H1476      H    0.5586652081    0.1406498029    0.7673335288
H1477      H    0.4932981249    0.0965041217    0.7191395315
F1478      F    0.4867607744    0.1422037063    0.7242164333
C1459      C    0.9012290499    0.3013740445    0.4684901071
C1460      C    0.9173883577    0.2818024251    0.4693243564
C1461      C    0.9072148712    0.2580369772    0.4696909828
C1462      C    0.8821776499    0.2538174494    0.4692520803
C1463      C    0.8660187542    0.2733888289    0.4684214886
C1464      C    0.8761922407    0.2971542768    0.4680548622
F1465      F    0.8618464111    0.3167940971    0.4672574177
H1466      H    0.9081757176    0.3200452127    0.4681802471
H1467      H    0.8752313943    0.2351460412    0.4695655979
F1468      F    0.9215607008    0.2383971568    0.4704884274
C1449      C    0.8954287992    0.4918243877    0.2587967185
C1450      C    0.9055187822    0.4867027141    0.2820732599
C1451      C    0.8894782612    0.4849598245    0.3018133503
C1452      C    0.8645710818    0.4881404126    0.2986720387
C1453      C    0.8544818314    0.4932655105    0.2753966939
C1454      C    0.8705223524    0.4950084001    0.2556566035
F1455      F    0.8621725933    0.4998661941    0.2328336796
H1456      H    0.9070377229    0.4933516727    0.2429889804
H1457      H    0.8529628907    0.4866165518    0.3144809735
F1458      F    0.8978280203    0.4801020305    0.3246362742
C1439      C    0.0109989167    0.1073680201    0.2363149893
C1440      C    0.0278999453    0.0958258295    0.2211737622
C1441      C    0.0431157482    0.1108370394    0.2071675308
C1442      C    0.0416797009    0.1361338098    0.2080953502
C1443      C    0.0247765893    0.1476755516    0.2232335231
C1444      C    0.0095607864    0.1326643418    0.2372397546
F1445      F   -0.0070655688    0.1424252307    0.2521595769
H1446      H   -0.0011421483    0.0965936135    0.2474719704
H1447      H    0.0538186828    0.1469077676    0.1969353149
F1448      F    0.0597421034    0.1010761504    0.1922477084
C1429      C    0.1342051163    0.2275471961    0.2120665687
C1430      C    0.1504062294    0.2153650242    0.2277581866
C1431      C    0.1422714517    0.2095550887    0.2513352186
C1432      C    0.1191461567    0.2155271218    0.2590477797
C1433      C    0.1029467339    0.2277122037    0.2433577652
C1434      C    0.1110815116    0.2335221392    0.2197807333
F1435      F    0.0965686769    0.2451823330    0.2037502605
H1436      H    0.1396201880    0.2324278458    0.1937025679
H1437      H    0.1137327753    0.2106493821    0.2774133840
F1438      F    0.1567842864    0.1978948949    0.2673656914
C1419      C   -0.0124722955    0.2268451965    0.1225202687
C1420      C    0.0049107424    0.2300683895    0.1417375800
C1421      C    0.0295817679    0.2314652176    0.1353491168
C1422      C    0.0367401833    0.2297507595    0.1110398604
C1423      C    0.0193577165    0.2265240532    0.0918232966
C1424      C   -0.0053133091    0.2251272251    0.0982117598
F1425      F   -0.0229806124    0.2220515897    0.0807926983
H1426      H   -0.0317297379    0.2256585651    0.1264958480
H1427      H    0.0559981968    0.2309338776    0.1070650286
F1428      F    0.0472490713    0.2345408530    0.1527681782
C1409      C   -0.0479541971    0.3724663692    0.2837728420
C1410      C   -0.0260807145    0.3626399178    0.2754815840
C1411      C   -0.0070594983    0.3791376404    0.2701073436
C1412      C   -0.0095605779    0.4042329640    0.2728127450
C1413      C   -0.0314348279    0.4140592988    0.2811003820
C1414      C   -0.0504560442    0.3975615762    0.2864746225
F1415      F   -0.0719323689    0.4056381319    0.2945010398
H1416      H   -0.0631630445    0.3605032117    0.2881590320
H1417      H    0.0056475021    0.4161960050    0.2684229341
F1418      F    0.0144168265    0.3710610848    0.2620809262
C1399      C   -0.1203122866    0.2482490760    0.2528098332
C1400      C   -0.1083414129    0.2708303298    0.2495276458
C1401      C   -0.1224884797    0.2919560974    0.2505547950
C1402      C   -0.1473639186    0.2907994678    0.2546454511
C1403      C   -0.1593351256    0.2682183984    0.2579239700
C1404      C   -0.1451880587    0.2470926309    0.2568968208
F1405      F   -0.1554005035    0.2248277095    0.2598767208
H1406      H   -0.1102049127    0.2314307433    0.2521779863
H1407      H   -0.1574716257    0.3076179850    0.2552736294
F1408      F   -0.1122760350    0.3142210187    0.2475748949
C1389      C   -0.0143383007    0.2616208112    0.3945512786
C1390      C   -0.0110195958    0.2845279130    0.4063812900
C1391      C   -0.0029355886    0.3040974392    0.3920764063
C1392      C    0.0016606543    0.3011426347    0.3671832536
C1393      C   -0.0016545730    0.2782352235    0.3553543683
C1394      C   -0.0097385803    0.2586656973    0.3696592520
F1395      F   -0.0133240760    0.2361964029    0.3595869886
H1396      H   -0.0205462844    0.2459564787    0.4047834541
H1397      H    0.0078721156    0.3168066578    0.3569522042
F1398      F    0.0006499072    0.3265667336    0.4021486698
C1379      C   -0.0272728026    0.3569019053    0.4989934897
C1380      C   -0.0150803117    0.3485806575    0.4780736506
C1381      C   -0.0019867444    0.3659871907    0.4646775897
C1382      C   -0.0009964387    0.3905273980    0.4716603912
C1383      C   -0.0131916184    0.3988489881    0.4925777159
C1384      C   -0.0262851857    0.3814424549    0.5059737768
F1385      F   -0.0384120906    0.3880661272    0.5262135641
H1386      H   -0.0376204489    0.3441925885    0.5099390251
H1387      H    0.0093485188    0.4032370571    0.4607123414
F1388      F    0.0101401605    0.3593635184    0.4444378024
C1369      C   -0.0253863860    0.5139686678    0.3535501476
C1370      C   -0.0302825512    0.4900174347    0.3448045998
C1371      C   -0.0306249460    0.4713215406    0.3621907978
C1372      C   -0.0263172629    0.4761011526    0.3871132526
C1373      C   -0.0214176864    0.5000513904    0.3958581010
C1374      C   -0.0210752916    0.5187472845    0.3784719030
F1375      F   -0.0165144929    0.5421302590    0.3854905393
H1376      H   -0.0249198371    0.5290215161    0.3408739345
H1377      H   -0.0267804005    0.4610473089    0.3997887664
F1378      F   -0.0351857447    0.4479385661    0.3551721616
C1359      C   -0.1263567066    0.4404053978    0.4726466866
C1360      C   -0.1438619570    0.4586791184    0.4705556216
C1361      C   -0.1354053736    0.4830905831    0.4703681679
C1362      C   -0.1107373484    0.4891572836    0.4721684307
C1363      C   -0.0932327377    0.4708841235    0.4742630740
C1364      C   -0.1016893211    0.4464726589    0.4744505277
F1365      F   -0.0859876288    0.4279957359    0.4764004547
H1366      H   -0.1319574494    0.4213047866    0.4728773879
H1367      H   -0.1051372453    0.5082584553    0.4719413077
F1368      F   -0.1511070660    0.5015675060    0.4684182409
C1349      C    0.0509245353    0.4992541464    0.6195810536
C1350      C    0.0323291091    0.5086371461    0.6045307897
C1351      C    0.0159282652    0.5247065910    0.6155582088
C1352      C    0.0178341567    0.5312053861    0.6403628457
C1353      C    0.0364270412    0.5218197622    0.6554135283
C1354      C    0.0528278850    0.5057503173    0.6443861092
F1355      F    0.0711008684    0.4960418244    0.6576497627
H1356      H    0.0640261500    0.4867928062    0.6119463941
H1357      H    0.0047300002    0.5436641022    0.6479979239
F1358      F   -0.0023447182    0.5344150839    0.6022945553
C1339      C    0.0460889560    0.6181464462    0.5210718991
C1340      C    0.0290797709    0.6098699023    0.5029310273
C1341      C    0.0157384685    0.6275986927    0.4903301645
C1342      C    0.0190712699    0.6524050551    0.4954431341
C1343      C    0.0360775390    0.6606811870    0.5135861200
C1344      C    0.0494188414    0.6429523966    0.5261869828
F1345      F    0.0660290207    0.6495145686    0.5437989079
H1346      H    0.0568265615    0.6051931781    0.5313032336
H1347      H    0.0083307485    0.6653579112    0.4852139136
F1348      F   -0.0008717108    0.6210365207    0.4727182393
C1329      C    0.1472595699    0.5065434455    0.5245449351
C1330      C    0.1610277044    0.5278677788    0.5202018491
C1331      C    0.1482346846    0.5494792517    0.5161000206
C1332      C    0.1229538166    0.5499775486    0.5162854739
C1333      C    0.1091859052    0.5286529009    0.5206248947
C1334      C    0.1219789251    0.5070414279    0.5247267232
F1335      F    0.1100148143    0.4859116578    0.5290122444
H1336      H    0.1562741906    0.4894140457    0.5278077913
H1337      H    0.1139394190    0.5671066339    0.5130189525
F1338      F    0.1601987953    0.5706090219    0.5118144994
C1319      C    0.6171378618    0.5252713346    0.0446308344
C1320      C    0.6071163213    0.5227844195    0.0206772148
C1321      C    0.6230356893    0.5254801838    0.0009463763
C1322      C    0.6477621003    0.5304151211    0.0047375654
C1323      C    0.6577827384    0.5329055159    0.0286906498
C1324      C    0.6418633703    0.5302097516    0.0484214883
F1325      F    0.6501573070    0.5323458259    0.0718715170
H1326      H    0.6056169087    0.5233549382    0.0604606549
H1327      H    0.6592821509    0.5323349972   -0.0110927903
F1328      F    0.6147417526    0.5233441095   -0.0225036524
C1309      C    0.7160481976    0.5112144664    0.1058163736
C1310      C    0.7249378473    0.5335578175    0.0969968041
C1311      C    0.7353284591    0.5503579764    0.1143057308
C1312      C    0.7368583882    0.5452859700    0.1392242940
C1313      C    0.7279656897    0.5229445546    0.1480440834
C1314      C    0.7175750779    0.5061443957    0.1307351567
F1315      F    0.7086805374    0.4843711244    0.1378270660
H1316      H    0.7078699448    0.4976532098    0.0932015311
H1317      H    0.7450335922    0.5588491623    0.1518393564
F1318      F    0.7442229996    0.5721312477    0.1072138215
C1299      C    0.6231304206    0.7585386088    0.0081242269
C1300      C    0.6409167705    0.7425703330    0.0169120326
C1301      C    0.6329591837    0.7194396906    0.0246450406
C1302      C    0.6085026849    0.7124163383    0.0237274147
C1303      C    0.5907163862    0.7283856306    0.0149431700
C1304      C    0.5986739730    0.7515162729    0.0072101620
F1305      F    0.5826804458    0.7677746586   -0.0014247059
H1306      H    0.6283445240    0.7765800015    0.0019465176
H1307      H    0.6032886327    0.6943759621    0.0299086849
F1308      F    0.6489527109    0.7031813050    0.0332799084
C1289      C    0.7540234999    0.6283296977    0.0081998864
C1290      C    0.7446139170    0.6477973462    0.0220110277
C1291      C    0.7278113383    0.6420293119    0.0402831370
C1292      C    0.7206359653    0.6180769415    0.0446980342
C1293      C    0.7300426606    0.5986100348    0.0308847363
C1294      C    0.7468452393    0.6043780691    0.0126126270
F1295      F    0.7566256793    0.5866879410   -0.0013403260
H1296      H    0.7670348969    0.6318289495   -0.0061033150
H1297      H    0.7076216807    0.6145784315    0.0589990790
F1298      F    0.7180308983    0.6597194400    0.0542360900
C1279      C    0.7101506378    0.7036773609    0.1173486651
C1280      C    0.7264370524    0.7203854058    0.1068279436
C1281      C    0.7428848291    0.7332237757    0.1227898200
C1282      C    0.7432099507    0.7296946570    0.1480295158
C1283      C    0.7269214804    0.7129895928    0.1585503557
C1284      C    0.7104737038    0.7001512229    0.1425884793
F1285      F    0.6943399469    0.6838518314    0.1513423894
H1286      H    0.6971111468    0.6933300782    0.1058173355
H1287      H    0.7562473861    0.7400449204    0.1595609638
F1288      F    0.7590185860    0.7495231672    0.1140359099
C1269      C    0.8709672518    0.7613911832   -0.0072922325
C1270      C    0.8537486873    0.7518646236   -0.0246196626
C1271      C    0.8620846622    0.7456285992   -0.0481609973
C1272      C    0.8863658197    0.7486785603   -0.0542906805
C1273      C    0.9035832884    0.7582082558   -0.0369647112
C1274      C    0.8952473135    0.7644442801   -0.0134233765
F1275      F    0.9106908438    0.7736686685    0.0041216763
H1276      H    0.8654446974    0.7664784554    0.0111147555
H1277      H    0.8918872783    0.7435944239   -0.0726991293
F1278      F    0.8466411320    0.7364042109   -0.0657060502
C1259      C    0.7832860634    0.8054418292   -0.1057074332
C1260      C    0.7813052388    0.7810141015   -0.0984178872
C1261      C    0.7863780124    0.7627397523   -0.1160084628
C1262      C    0.7931091923    0.7683739996   -0.1397480724
C1263      C    0.7950864908    0.7928010992   -0.1470384806
C1264      C    0.7900137172    0.8110754484   -0.1294479050
F1265      F    0.7915329714    0.8348737257   -0.1351032311
H1266      H    0.7795623888    0.8201986977   -0.0928161228
H1267      H    0.7968293408    0.7536165030   -0.1526402451
F1268      F    0.7848587581    0.7389414750   -0.1103531368
C1249      C    0.7761500217    0.8667302052   -0.0138343527
C1250      C    0.7532444600    0.8562554229   -0.0201993630
C1251      C    0.7351095342    0.8719285234   -0.0288928037
C1252      C    0.7394361337    0.8968483003   -0.0311883582
C1253      C    0.7623401245    0.9073233548   -0.0248200658
C1254      C    0.7804750503    0.8916502543   -0.0161266252
F1255      F    0.8028533267    0.9003796523   -0.0096796906
H1256      H    0.7907371233    0.8554136896   -0.0070374691
H1257      H    0.7248474611    0.9081650881   -0.0379819597
F1258      F    0.7127312578    0.8631991253   -0.0353397383
loop_
_geom_bond_atom_site_label_1
_geom_bond_atom_site_label_2
_geom_bond_distance
_geom_bond_site_symmetry_2
_ccdc_geom_bond_type
