data_0pcn222_v1-tetracenter_v2-8c_Zr_1_Ch_dummy_1-tetraedgenobond
_audit_creation_date              2024-11-27
_audit_creation_method            'tobacco_3.0'
_symmetry_space_group_name_H-M    'P1'
_symmetry_Int_Tables_number       1
_symmetry_cell_setting            triclinic
loop_
_symmetry_equiv_pos_as_xyz
  x,y,z
_cell_length_a                    41.67672721325156
_cell_length_b                    39.91807969372424
_cell_length_c                    15.835528879052642
_cell_angle_alpha                 93.08009334503586
_cell_angle_beta                  87.1270534179478
_cell_angle_gamma                 121.69448354979613
loop_
_atom_site_label
_atom_site_type_symbol
_atom_site_fract_x
_atom_site_fract_y
_atom_site_fract_z
N1         N    0.7954604605    0.4953768999   -0.0002882474
C2         C    0.8139872352    0.4949121081    0.0693434495
C3         C    0.8168395589    0.4952544699   -0.0699338183
C4         C    0.8478000882    0.4954548297    0.0427134949
C5         C    0.8495787226    0.4957100506   -0.0431390860
N6         N    0.7474801820    0.4997918446    0.1261580767
C7         C    0.7711654168    0.4965605138    0.1789047463
C8         C    0.7211678027    0.5019655322    0.1792765153
C9         C    0.7286058508    0.5000554737    0.2661594176
C10        C    0.7590733598    0.4961403804    0.2658590720
N11        N    0.7050876035    0.5055653341    0.0003020731
C12        C    0.6846467282    0.5074365412    0.0701255708
C13        C    0.6868192771    0.5065943718   -0.0692799698
C14        C    0.6530805529    0.5093346976    0.0435857352
C15        C    0.6543900143    0.5087597544   -0.0423693054
N16        N    0.7520266251    0.4993336201   -0.1261997304
C17        C    0.7780088223    0.4965640726   -0.1793128901
C18        C    0.7273598036    0.5008018578   -0.1790999782
C19        C    0.7381245508    0.4988530357   -0.2662221676
C20        C    0.7690535282    0.4957499642   -0.2663578017
C21        C    0.8028444836    0.4945825554    0.1542263714
C22        C    0.8090270704    0.4950932785   -0.1548589397
C23        C    0.6965776064    0.5043894889   -0.1543270221
C24        C    0.6915508396    0.5059346772    0.1549595904
H25        H    0.8674783663    0.4959022006    0.0852384170
H26        H    0.8710196209    0.4964023281   -0.0855061752
H27        H    0.7121920282    0.5013952763    0.3196775881
H28        H    0.7727029912    0.4934954420    0.3190713283
H29        H    0.6325785709    0.5104565256    0.0861910831
H30        H    0.6351857648    0.5093184000   -0.0847699017
H31        H    0.7234800092    0.4996923924   -0.3196093462
H32        H    0.7848897971    0.4933624491   -0.3198828011
Co33      Co    0.7500078121    0.5000164575    0.0000008962
N34        N    0.6363897501    0.3604126883    0.8660671023
C35        C    0.6363581047    0.3414570931    0.9367439160
C36        C    0.6366617999    0.3375767270    0.7974254569
C37        C    0.6375325598    0.3068963496    0.9116684522
C38        C    0.6377620308    0.3045300081    0.8257848190
N39        N    0.6396850702    0.4157545046    0.9896080766
C40        C    0.6371259210    0.3883989752    1.0440548527
C41        C    0.6412487247    0.4456914004    1.0411554416
C42        C    0.6396360139    0.4368114844    1.1287727552
C43        C    0.6365349040    0.4012420378    1.1305594565
N44        N    0.6442384705    0.4644123803    0.8606814031
C45        C    0.6456420873    0.4881280475    0.9292834587
C46        C    0.6448098843    0.4836974167    0.7899818791
C47        C    0.6467954076    0.5224515808    0.9008818333
C48        C    0.6462289358    0.5196920076    0.8149978126
N49        N    0.6392010774    0.4082265285    0.7373077737
C50        C    0.6370663008    0.3780013404    0.6858393474
C51        C    0.6400701442    0.4347322059    0.6829249877
C52        C    0.6383901592    0.4207562918    0.5965444752
C53        C    0.6360676845    0.3855694554    0.5983962318
C54        C    0.6358707056    0.3533970405    1.0212081618
C55        C    0.6363057720    0.3446747865    0.7120617664
C56        C    0.6428683633    0.4705088942    0.7056676156
C57        C    0.6444043077    0.4802107878    1.0147621814
H58        H    0.6383730049    0.2874628047    0.9551322379
H59        H    0.6388223904    0.2827447145    0.7843272046
H60        H    0.6406074824    0.4556593461    1.1813322954
H61        H    0.6343308069    0.3848843849    1.1848897966
H62        H    0.6474726557    0.5451853891    0.9423504263
H63        H    0.6463511495    0.5396996100    0.7715300149
H64        H    0.6388632421    0.4362534227    0.5422615327
H65        H    0.6340920518    0.3662114257    0.5459595131
Co66      Co    0.6398780359    0.4122071985    0.8634237298
N67        N    0.7419665969    0.2003242097    0.0109496537
C68        C    0.7219137116    0.1795507792    0.0815847102
C69        C    0.7208385350    0.1779505075   -0.0575739197
C70        C    0.6883355786    0.1433410482    0.0565386639
C71        C    0.6876958320    0.1423355719   -0.0292493883
N72        N    0.7938049126    0.2511313871    0.1339869849
C73        C    0.7659428658    0.2247737324    0.1886038949
C74        C    0.8221610962    0.2791469543    0.1852957070
C75        C    0.8117732200    0.2700727407    0.2729354711
C76        C    0.7769000425    0.2368972296    0.2750129825
N77        N    0.8439991858    0.2986355670    0.0047971426
C78        C    0.8659037133    0.3201131588    0.0731646490
C79        C    0.8643477220    0.3191677695   -0.0658982367
C80        C    0.9001826797    0.3546188292    0.0446409808
C81        C    0.8991987297    0.3540646312   -0.0410921647
N82        N    0.7914205463    0.2488298821   -0.1179520668
C83        C    0.7628097784    0.2211303007   -0.1691422580
C84        C    0.8185357985    0.2761292586   -0.1723876225
C85        C    0.8065833514    0.2652797796   -0.2585149814
C86        C    0.7720435736    0.2316594244   -0.2564265817
C87        C    0.7320169694    0.1906766685    0.1659509318
C88        C    0.7295340156    0.1872674825   -0.1428242269
C89        C    0.8531432820    0.3093662703   -0.1499458142
C90        C    0.8564854182    0.3116649903    0.1586406402
H91        H    0.6683045540    0.1216696049    0.0999357261
H92        H    0.6670208739    0.1196651955   -0.0706787116
H93        H    0.8292282883    0.2873346182    0.3253208675
H94        H    0.7598444006    0.2214369792    0.3294642676
H95        H    0.9216974887    0.3763961695    0.0859603530
H96        H    0.9197430390    0.3752913129   -0.0845603339
H97        H    0.8228842266    0.2817150750   -0.3127986624
H98        H    0.7541379721    0.2149500661   -0.3086195171
Co99      Co    0.7928032719    0.2497365268    0.0079530851
N100       N    0.5782018938    0.9400457894    0.0110493141
C101       C    0.5757137309    0.9591616443    0.0843133756
C102       C    0.5751084271    0.9596121287   -0.0546530894
C103       C    0.5701010555    0.9904225507    0.0639437182
C104       C    0.5696862555    0.9906706699   -0.0217186703
N105       N    0.5815586124    0.8911351974    0.1281162135
C106       C    0.5807129376    0.9180079770    0.1857706541
C107       C    0.5836304617    0.8643672925    0.1760987093
C108       C    0.5840811188    0.8747529482    0.2647223308
C109       C    0.5828456483    0.9081289541    0.2706158959
N110       N    0.5831101465    0.8426223107   -0.0065644921
C111       C    0.5845338562    0.8220120945    0.0592854768
C112       C    0.5850663275    0.8231273513   -0.0797970331
C113       C    0.5877223453    0.7894631960    0.0265482204
C114       C    0.5881038472    0.7901839411   -0.0592067132
N115       N    0.5814981489    0.8925556903   -0.1236676758
C116       C    0.5799967777    0.9196701598   -0.1716364353
C117       C    0.5840326753    0.8667016766   -0.1814517621
C118       C    0.5841704157    0.8779420524   -0.2664342425
C119       C    0.5821555966    0.9108590641   -0.2603850987
C120       C    0.5776243320    0.9500587357    0.1672522920
C121       C    0.5765209009    0.9511944048   -0.1411415020
C122       C    0.5855793250    0.8337208497   -0.1628605980
C123       C    0.5847116842    0.8314081999    0.1457087281
H124       H    0.5666660421    1.0092562371    0.1101735494
H125       H    0.5658469996    1.0097616793   -0.0601911717
H126       H    0.5853687605    0.8583491840    0.3150656794
H127       H    0.5830233711    0.9247742707    0.3267757187
H128       H    0.5898346645    0.7692573004    0.0652210941
H129       H    0.5905883151    0.7706874285   -0.1053420135
H130       H    0.5857237367    0.8623305994   -0.3227463204
H131       H    0.5818705932    0.9278748522   -0.3107198604
Co132     Co    0.5810935027    0.8915847436    0.0022401481
N133       N    0.2889184296    0.6625721141    0.9667421161
C134       C    0.2687458838    0.6620715250    0.8993820452
C135       C    0.2686097886    0.6626154857    1.0385924777
C136       C    0.2359460831    0.6627596696    0.9298030614
C137       C    0.2358862714    0.6631391574    1.0156200497
N138       N    0.3391733858    0.6666499488    0.8355671394
C139       C    0.3113460290    0.6634271415    0.7854198755
C140       C    0.3667601404    0.6686616166    0.7797886716
C141       C    0.3559230415    0.6666582191    0.6938651075
C142       C    0.3215303843    0.6628481080    0.6973239174
N143       N    0.3895047669    0.6724517538    0.9566760918
C144       C    0.4106334498    0.6741572617    0.8848849288
C145       C    0.4099862860    0.6735164894    1.0240579799
C146       C    0.4445501881    0.6759871535    0.9079114894
C147       C    0.4441251781    0.6755363764    0.9937156231
N148       N    0.3384622136    0.6665566489    1.0876530502
C149       C    0.3106054225    0.6639489611    1.1433444506
C150       C    0.3654980450    0.6680161085    1.1377108609
C151       C    0.3542579238    0.6662257641    1.2256472986
C152       C    0.3202188389    0.6632276922    1.2290546722
C153       C    0.2781077715    0.6615888727    0.8134655921
C154       C    0.2777022254    0.6625468918    1.1223673358
C155       C    0.3994590296    0.6714643480    1.1097923895
C156       C    0.4007759763    0.6725625424    0.8009740748
H157       H    0.2160023171    0.6632111098    0.8896673192
H158       H    0.2158719676    0.6639584046    1.0603410087
H159       H    0.3727686666    0.6678687477    0.6387471878
H160       H    0.3043372034    0.6601776208    0.6456171356
H161       H    0.4654485962    0.6769819325    0.8631945238
H162       H    0.4646059902    0.6760907687    1.0338560737
H163       H    0.3706504694    0.6670904020    1.2772789667
H164       H    0.3028956664    0.6609692014    1.2840359034
Co165     Co    0.3390199982    0.6670571200    0.9616510659
N166       N    0.2013509631    0.8227556180    0.0073109819
C167       C    0.1805906188    0.8027215347   -0.0633767192
C168       C    0.1791353016    0.8017937068    0.0757788864
C169       C    0.1446326740    0.7694069907   -0.0384201899
C170       C    0.1437203837    0.7688619047    0.0473660052
N171       N    0.2521736365    0.8745907716   -0.1155947066
C172       C    0.2256367612    0.8465576893   -0.1702815328
C173       C    0.2801885520    0.9029362897   -0.1668310966
C174       C    0.2709319900    0.8923680568   -0.2544961831
C175       C    0.2375953854    0.8573449928   -0.2566612476
N176       N    0.3000204053    0.9251133193    0.0137212031
C177       C    0.3214922882    0.9470040214   -0.0545907122
C178       C    0.3205884326    0.9454919473    0.0844693214
C179       C    0.3560024618    0.9812765684   -0.0259785574
C180       C    0.3554690177    0.9803148419    0.0597528325
N181       N    0.2500405088    0.8723791087    0.1363390261
C182       C    0.2222895696    0.8437269947    0.1874569379
C183       C    0.2773653113    0.8995115956    0.1908446717
C184       C    0.2664739869    0.8875222919    0.2769429129
C185       C    0.2327633551    0.8529034495    0.2747668519
C186       C    0.1915660030    0.8126696185   -0.1477159359
C187       C    0.1884567132    0.8104918703    0.1610525586
C188       C    0.3107164658    0.9342217084    0.1684900704
C189       C    0.3128946727    0.9374380329   -0.1400899532
H190       H    0.1230770317    0.7494979958   -0.0818709048
H191       H    0.1212573449    0.7484019738    0.0887398184
H192       H    0.2881774135    0.9098002112   -0.3068370924
H193       H    0.2219493823    0.8401082125   -0.3111545542
H194       H    0.3777302582    1.0027341250   -0.0672424093
H195       H    0.3766671510    1.0008243478    0.1032747859
H196       H    0.2829374934    0.9038467544    0.3312688199
H197       H    0.2159790298    0.8349293383    0.3269153854
Co198     Co    0.2509025661    0.8737150862    0.0104364846
D261       D    0.0496707701    0.5329181328    0.6658575203
D262       D    0.0357077414    0.5328023532    0.5861994454
D263       D    0.0705603871    0.5420298885    0.5471597386
D264       D    0.0845234159    0.5421456683    0.6268178135
D265       D    0.0359466472    0.5125480635    0.6202292058
D266       D    0.0707992930    0.5217755989    0.5811894990
D267       D    0.0842845101    0.5623999578    0.5927880528
D268       D    0.0494318643    0.5531724225    0.6318277596
Zr211     Zr    0.0537210139    0.5340973127    0.5991312938
D269       D    0.0536330168    0.6297014714    0.6316990235
D270       D    0.0417484607    0.6325357530    0.5517041012
D271       D    0.0163133023    0.5912865873    0.5482251404
D272       D    0.0281978584    0.5884523058    0.6282200627
D273       D    0.0335191632    0.6336667750    0.6116561562
D274       D    0.0080840048    0.5924176094    0.6081771953
D275       D    0.0364271559    0.5873212837    0.5682680077
D276       D    0.0618623143    0.6285704494    0.5717469685
Zr214     Zr    0.0339831319    0.6050921362    0.6062588735
D277       D    0.0823999630    0.5423889066    0.3665545414
D278       D    0.0717509942    0.5214725502    0.4423591758
D279       D    0.0377241137    0.5213687692    0.4462454766
D280       D    0.0483730825    0.5422851256    0.3704408422
D281       D    0.0681270844    0.5139168823    0.3807788725
D282       D    0.0341002039    0.5138131012    0.3846651733
D283       D    0.0519969923    0.5498407936    0.4320211455
D284       D    0.0860238728    0.5499445746    0.4281348447
Zr231     Zr    0.0578457683    0.5350811886    0.3888837131
D285       D    0.0142480193    0.5985444375    0.3727696932
D286       D    0.0211029921    0.6173075064    0.4538573354
D287       D    0.0559998509    0.6193450998    0.4548664200
D288       D    0.0491448781    0.6005820309    0.3737787775
D289       D    0.0267135194    0.6264954012    0.3944203272
D290       D    0.0616103781    0.6285329946    0.3954294118
D291       D    0.0435343509    0.5913941360    0.4332157857
D292       D    0.0086374921    0.5893565427    0.4322067014
Zr234     Zr    0.0381078864    0.6060760121    0.3960112928
D298       D    0.0106789427    0.5439759339    0.4831464215
D299       D   -0.0079865850    0.5501166710    0.5537795606
D300       D   -0.0414216432    0.5139991049    0.5342770175
D293       D   -0.0264938116    0.5010126872    0.5246248425
D294       D   -0.0376839469    0.5208447858    0.4732960540
D295       D   -0.0042488888    0.5569623517    0.4927985967
D296       D    0.0069412465    0.5371302532    0.5441273853
D297       D   -0.0227561154    0.5078583679    0.4636438787
Zr237     Zr   -0.0090608705    0.5294570949    0.4943099639
D301       D    0.1183265841    0.6391641676    0.4705179347
D302       D    0.0873227647    0.6125692670    0.5217147459
D303       D    0.0960809612    0.5832144275    0.5023444610
D304       D    0.1270847806    0.6098093281    0.4511476501
D305       D    0.1145888291    0.6323185390    0.5314989369
D306       D    0.1233470256    0.6029636995    0.5121286523
D307       D    0.0998187162    0.5900600562    0.4413634587
D308       D    0.0910605197    0.6194148956    0.4607337433
Zr238     Zr    0.1008952816    0.6107203027    0.5008329496
H254       H    0.0532998024    0.4690349434    0.5576778792
H258       H    0.0677991942    0.4820974661    0.6495030979
O213       O    0.0711148686    0.4923708275    0.5919942343
H256       H    0.0488020613    0.6036309842    0.7651917636
H259       H    0.0252964005    0.6237056544    0.7627392145
O215       O    0.0260807320    0.6004458147    0.7402673064
H252       H    0.0731169074    0.5591091993    0.2317676017
H257       H    0.0657406915    0.5165641658    0.2318364877
O232       O    0.0553894432    0.5327923136    0.2541963020
H250       H    0.0436543824    0.6728510667    0.4429025570
H260       H    0.0242897557    0.6594551395    0.3550221326
O236       O    0.0233518028    0.6497300591    0.4119601933
H255       H    0.0259988477    0.5335690966    0.7506764312
O212       O    0.0503131045    0.5363682501    0.7321464456
H249       H    0.0013903705    0.6454806900    0.5889760370
O216       O    0.0279026846    0.6544730393    0.6002174859
H245       H    0.0919805538    0.6059209378    0.6824164747
O218       O    0.0769974718    0.5942602995    0.6219046674
H253       H    0.0914741758    0.4984007855    0.4274479242
O233       O    0.0690670069    0.4891475176    0.3926137088
H251       H    0.0278632036    0.5796682980    0.2399620843
O235       O    0.0424389622    0.6072129303    0.2621751173
H247       H    0.0991191390    0.6076185687    0.3186152045
O239       O    0.0817981584    0.5954048561    0.3772106212
H246       H   -0.0215595969    0.5937917676    0.5007027143
O242       O    0.0006576479    0.5864220545    0.4997130815
H248       H    0.0123763052    0.4717283923    0.4884474737
O243       O    0.0236203822    0.5038277299    0.4914221499
O217       O    0.0100307419    0.5447684687    0.6179319655
O240       O    0.0148314285    0.5459130253    0.3732379192
O241       O    0.0911712524    0.5537512703    0.4954295051
O244       O    0.0682085181    0.6363455949    0.5037204367
O199       O    0.0079496827    0.4798094643    0.6471908431
O200       O   -0.0435578488    0.4758414014    0.5596710125
C201       C   -0.0302757260    0.4638222591    0.6255540641
O202       O    0.0776896663    0.6588920961    0.6637030179
O203       O    0.1326358730    0.6636740159    0.5757126213
C204       C    0.1167216173    0.6750720195    0.6442241960
O205       O   -0.0214654004    0.5856114416    0.6578207906
O206       O   -0.0568460262    0.5236372226    0.5644718886
C207       C   -0.0539410437    0.5489436036    0.6340998867
O208       O    0.1071047494    0.5530901187    0.6530730704
O209       O    0.1459240504    0.6158781947    0.5709117452
C210       C    0.1403869350    0.5899506750    0.6356783734
O219       O    0.1132998114    0.5545659559    0.3373221229
O220       O    0.1486749265    0.6165361022    0.4306706980
C221       C    0.1457754547    0.5912337940    0.3610430269
O222       O   -0.0152703383    0.5870872788    0.3420698431
O223       O   -0.0540951501    0.5242951301    0.4242308414
C224       C   -0.0485525240    0.5502267225    0.3594645402
O225       O    0.0838847283    0.6603679332    0.3479520704
O226       O    0.1353867491    0.6643319234    0.4354715741
C227       C    0.1221101370    0.6763551384    0.3695888495
O228       O    0.0141447448    0.4812853015    0.3314398956
O229       O   -0.0408069727    0.4764993088    0.4194299653
C230       C   -0.0248872063    0.4651053781    0.3509187175
D371       D    0.5444029929    0.5756219026    0.2700697448
D372       D    0.5576104462    0.5768638842    0.3514077214
D373       D    0.5267379450    0.5782187094    0.3886582410
D374       D    0.5135304919    0.5769767279    0.3073202645
D375       D    0.5402366682    0.5554335128    0.3111150287
D376       D    0.5093641671    0.5567883380    0.3483655483
D377       D    0.5309042697    0.5984070992    0.3476129575
D378       D    0.5617767708    0.5970522740    0.3103624379
Zr321     Zr    0.5393868690    0.5745067125    0.3365246215
D379       D    0.6249896666    0.6797440630    0.3336821949
D380       D    0.6385310644    0.6837341397    0.4159979882
D381       D    0.6296969505    0.6443082275    0.4100240570
D382       D    0.6161555527    0.6403181508    0.3277082638
D383       D    0.6499957237    0.6881651438    0.3575741110
D384       D    0.6411616097    0.6487392316    0.3516001798
D385       D    0.6046908934    0.6358871467    0.3861321410
D386       D    0.6135250074    0.6753130589    0.3921060721
Zr324     Zr    0.6240382007    0.6567094988    0.3540360246
D387       D    0.5096927326    0.5719066538    0.5675345775
D388       D    0.5046553918    0.5531408584    0.4867608665
D389       D    0.5418484281    0.5607862114    0.4873312025
D390       D    0.5468857688    0.5795520066    0.5681049134
D391       D    0.5004133777    0.5443242173    0.5463786630
D392       D    0.5376064139    0.5519695701    0.5469489989
D393       D    0.5511277830    0.5883686479    0.5084871169
D394       D    0.5139347468    0.5807232949    0.5079167810
Zr341     Zr    0.5306012765    0.5699547745    0.5462075561
D395       D    0.6340878636    0.6487863485    0.5877310108
D396       D    0.6452064229    0.6695593651    0.5116878237
D397       D    0.6088958665    0.6639407777    0.5067150957
D398       D    0.5977773073    0.6431677611    0.5827582831
D399       D    0.6457595344    0.6770083033    0.5731441122
D400       D    0.6094489782    0.6713897160    0.5681713843
D401       D    0.5972241956    0.6357188228    0.5213019945
D402       D    0.6335347520    0.6413374103    0.5262747222
Zr344     Zr    0.6152526082    0.6521575608    0.5637189592
D408       D    0.5923421218    0.5924167841    0.4610649064
D409       D    0.6199134923    0.6049147834    0.3949057981
D410       D    0.6239772628    0.5725431421    0.4075766787
D403       D    0.5959189685    0.5547683431    0.4112179275
D404       D    0.6244641864    0.5778199419    0.4700945376
D405       D    0.6204004160    0.6101915832    0.4574236573
D406       D    0.5918551981    0.5871399843    0.3985470472
D407       D    0.5964058922    0.5600451428    0.4737357867
Zr347     Zr    0.6013259774    0.5812486168    0.4480145169
D411       D    0.5587194089    0.6718989195    0.4890260480
D412       D    0.5702948992    0.6509663779    0.4337416697
D413       D    0.5342386665    0.6164757609    0.4428201070
D414       D    0.5226631763    0.6374083026    0.4981044850
D415       D    0.5582325966    0.6666221909    0.4265081744
D416       D    0.5221763640    0.6321315739    0.4355866114
D417       D    0.5347254789    0.6217524897    0.5053379807
D418       D    0.5707817114    0.6562431066    0.4962595437
Zr348     Zr    0.5533110934    0.6454188726    0.4522292751
H364       H    0.4811842068    0.5025660866    0.3577822295
H368       H    0.4791598373    0.5156250579    0.2682423324
O323       O    0.4832301051    0.5248208416    0.3284125894
H366       H    0.6104395861    0.6553221667    0.1929443095
H369       H    0.6538570623    0.6825076043    0.2047183295
O325       O    0.6318403414    0.6564070265    0.2198351714
H362       H    0.5313524438    0.5892626559    0.7085229861
H367       H    0.5017194398    0.5444279949    0.6962255101
O342       O    0.5279592617    0.5649978582    0.6802992365
H360       H    0.6695042551    0.7249359594    0.5368881216
H370       H    0.6766473046    0.7126976810    0.6230268656
O346       O    0.6704501156    0.7035522857    0.5632833923
H365       H    0.5729293933    0.5835656040    0.1887031380
O322       O    0.5483813728    0.5807288570    0.2048696096
H359       H    0.6950231409    0.7078143667    0.3881172580
O326       O    0.6742892906    0.7119159799    0.3761905153
H355       H    0.5632492220    0.6462402817    0.2706130942
O328       O    0.5678112643    0.6355221372    0.3293868944
H363       H    0.4622911913    0.5231446588    0.4918920873
O343       O    0.4777293124    0.5173052004    0.5267531787
H361       H    0.5992295071    0.6221188932    0.7126819641
O345       O    0.6082485110    0.6494335212    0.6971294557
H357       H    0.5480413792    0.6383582866    0.6334356615
O349       O    0.5575856493    0.6302238255    0.5734236057
H356       H    0.6721460967    0.6545236269    0.4632394533
O352       O    0.6413095832    0.6414375753    0.4590139805
H358       H    0.5266026786    0.5131900731    0.4331322025
O353       O    0.5428275358    0.5458041052    0.4386402900
O327       O    0.5970538278    0.5964404478    0.3268199751
O350       O    0.5868282129    0.5911421361    0.5708566863
O351       O    0.5133298939    0.5852266980    0.4412296002
O354       O    0.6118119413    0.6808601681    0.4616032907
O309       O    0.5424887045    0.5265668590    0.2777258486
O310       O    0.5931247521    0.5318879335    0.3706643464
C311       C    0.5695721203    0.5172289405    0.2994045994
O312       O    0.6253446981    0.7069387801    0.3076155921
O313       O    0.5673730209    0.6978107221    0.3897142554
C314       C    0.5965435613    0.7153868927    0.3269421298
O315       O    0.6686430396    0.6490720226    0.3038148531
O316       O    0.6501146524    0.5872293522    0.3824511748
C317       C    0.6710673394    0.6157884036    0.3204004144
O318       O    0.4991903629    0.5844336165    0.2815265876
O319       O    0.5103831206    0.6424693035    0.3779274270
C320       C    0.4950483422    0.6168274295    0.3059463149
O329       O    0.4859940312    0.5775954668    0.5964289389
O330       O    0.5045248247    0.6394349211    0.5177924060
C331       C    0.4835697313    0.6108790857    0.5798433776
O332       O    0.6554467078    0.6422338728    0.6187172044
O333       O    0.6442563565    0.5841949698    0.5223161537
C334       C    0.6595887285    0.6098400599    0.5942974771
O335       O    0.6121483663    0.7001006303    0.6225179434
O336       O    0.5615147250    0.6947763398    0.5295792344
C337       C    0.5850649505    0.7094385489    0.6008391926
O338       O    0.5292923727    0.5197287093    0.5926281999
O339       O    0.5872664562    0.5288535512    0.5105293253
C340       C    0.5580935094    0.5112805967    0.5733016622
D481       D    0.5709716621    0.1685182503    0.5235275074
D482       D    0.5524907548    0.1277362878    0.5029742538
D483       D    0.5284386875    0.1197390251    0.5751169448
D484       D    0.5469195949    0.1605209876    0.5956701984
D485       D    0.5487747593    0.1495742205    0.4888734835
D486       D    0.5247226920    0.1415769578    0.5610161745
D487       D    0.5506355902    0.1386830548    0.6097709687
D488       D    0.5746876575    0.1466803175    0.5376282777
Zr431     Zr    0.5482261221    0.1395952971    0.5360014544
D489       D    0.6274417007    0.1237466136    0.5919645664
D490       D    0.6098916911    0.0826184420    0.5770464301
D491       D    0.5923537514    0.0850779287    0.5054434076
D492       D    0.6099037609    0.1262061004    0.5203615439
D493       D    0.6342867311    0.1062616418    0.5587446247
D494       D    0.6167487913    0.1087211286    0.4871416022
D495       D    0.5855087209    0.1025629005    0.5386633492
D496       D    0.6030466607    0.1001034138    0.6102663717
Zr434     Zr    0.6117795629    0.1131052066    0.5425410398
D497       D    0.4643836496    0.0426712687    0.6087645418
D498       D    0.4793022040    0.0795983742    0.5715646882
D499       D    0.4981590641    0.0691803536    0.5087707907
D500       D    0.4832405096    0.0322532482    0.5459706442
D501       D    0.4559261139    0.0530207429    0.5642941136
D502       D    0.4747829740    0.0426027223    0.5015002161
D503       D    0.5066165998    0.0588308794    0.5532412188
D504       D    0.4877597396    0.0692489000    0.6160351163
Zr451     Zr    0.4790825953    0.0462359419    0.5577824921
D505       D    0.5421379963    0.0031427277    0.5174280903
D506       D    0.5781687074    0.0360782702    0.5361952991
D507       D    0.5618255546    0.0483929653    0.6014476645
D508       D    0.5257948434    0.0154574227    0.5826804557
D509       D    0.5627133022    0.0084402519    0.5559405237
D510       D    0.5463701495    0.0207549470    0.6211928891
D511       D    0.5412502485    0.0430954410    0.5629352311
D512       D    0.5575934014    0.0307807460    0.4976828657
Zr454     Zr    0.5426360361    0.0197458514    0.5643220775
D518       D    0.5403357235    0.0688725335    0.4704929313
D519       D    0.5771919423    0.0919804416    0.4353885330
D520       D    0.5623370104    0.0827331349    0.3532591003
D513       D    0.5421429518    0.0878825584    0.3733838257
D514       D    0.5456748503    0.0544758037    0.3682387738
D515       D    0.5605297821    0.0637231102    0.4503682062
D516       D    0.5569978836    0.0971298649    0.4555132581
D517       D    0.5254807917    0.0596252270    0.3883634989
Zr457     Zr    0.5437569965    0.0714406342    0.4246812857
D521       D    0.5487197918    0.0714589394    0.7269489539
D522       D    0.5622103912    0.0918348306    0.6505080301
D523       D    0.5303333612    0.0956182867    0.6499632237
D524       D    0.5168427621    0.0752423955    0.7264041476
D525       D    0.5653820323    0.0997162503    0.7119692019
D526       D    0.5335050026    0.1034997064    0.7114243955
D527       D    0.5136711208    0.0673609757    0.6649429758
D528       D    0.5455481505    0.0635775195    0.6654877821
Zr458     Zr    0.5471053295    0.0879013393    0.6756548244
H474       H    0.4883547938    0.1415360335    0.4982814994
H478       H    0.5197761882    0.1838556779    0.5269179790
O433       O    0.5069138851    0.1559160192    0.5429858251
H476       H    0.6542121928    0.1903373336    0.5585744008
H479       H    0.6800572111    0.1744124192    0.5278002448
O435       O    0.6557030961    0.1720010239    0.5165272835
H472       H    0.4378126548   -0.0265821055    0.6106275311
H477       H    0.4111031249   -0.0156407335    0.5711648587
O452       O    0.4353404198   -0.0144691099    0.5605955753
H470       H    0.6028259096    0.0215416118    0.6121441683
H480       H    0.5749632694   -0.0206424235    0.5741158902
O456       O    0.5868002073    0.0077183198    0.5627848488
H475       H    0.6110536096    0.1979581754    0.4749685327
O432       O    0.5944638584    0.1974519650    0.5225179467
H469       H    0.6521636980    0.0807832124    0.5084144986
O436       O    0.6484685080    0.0924767035    0.5618452842
H465       H    0.6067657749    0.1678721492    0.6446098058
O438       O    0.5866868400    0.1390105737    0.6139123573
H473       H    0.4476776407    0.0873156306    0.5946918844
O453       O    0.4414547038    0.0665699217    0.5501669304
H471       H    0.4787343857   -0.0456710581    0.5395262139
O455       O    0.4981024354   -0.0392347231    0.5816295440
H467       H    0.4871193308    0.0063300799    0.6822980656
O459       O    0.5062145576    0.0303556581    0.6392618959
H466       H    0.5985277897    0.0493372446    0.4405040498
O462       O    0.5813709327    0.0592049570    0.4768738484
H468       H    0.4892583928    0.0948821315    0.4292604199
O463       O    0.5074341982    0.0900236610    0.4692656691
O437       O    0.5846476006    0.1289854904    0.4610616360
O460       O    0.5041753182    0.0203305748    0.4864111745
O461       O    0.5094912255    0.1001361916    0.6234496835
O464       O    0.5834279600    0.0693174875    0.6310578628
O419       O    0.5484848291    0.1620895834    0.4157801148
O420       O    0.5442122794    0.1055410525    0.3244511713
C421       C    0.5498932191    0.1437519908    0.3372543426
O422       O    0.6462191280    0.1374592399    0.6518452953
O423       O    0.5927691464    0.1160740930    0.7613436286
C424       C    0.6312894366    0.1375395308    0.7346305563
O425       O    0.6431997045    0.1226154838    0.4255250987
O426       O    0.5869991327    0.0877081890    0.3288535690
C427       C    0.6260924976    0.1119909128    0.3450951721
O428       O    0.5515042525    0.1769333395    0.6421003115
O429       O    0.5499822931    0.1339069565    0.7569412308
C430       C    0.5550901582    0.1693006088    0.7267897269
O439       O    0.4476626215    0.0367264897    0.6748110114
O440       O    0.5038630255    0.0716329595    0.7714699628
C441       C    0.4647698284    0.0473510606    0.7552409381
O442       O    0.5393580735   -0.0175913660    0.4582357986
O443       O    0.5408798651    0.0254341920    0.3433823010
C444       C    0.5357721678   -0.0099586353    0.3735463832
O445       O    0.5423774970   -0.0027476099    0.6845559953
O446       O    0.5466498788    0.0538000960    0.7758723605
C447       C    0.5409691069    0.0155899827    0.7630817675
O448       O    0.4446431981    0.0218827336    0.4484908148
O449       O    0.4980930118    0.0432670555    0.3389799033
C450       C    0.4595728894    0.0218024427    0.3657055538
C759       C    0.3509897131    0.9650076589   -0.1663442402
C760       C    0.3768950296    0.9932545704   -0.1093921822
C761       C    0.4140414315    1.0201509213   -0.1346722454
C762       C    0.4266747879    1.0197814346   -0.2185047749
C763       C    0.4006460515    0.9914663774   -0.2757131031
C764       C    0.3635609931    0.9646363364   -0.2498414495
H765       H    0.3667202260    0.9932813761   -0.0448542911
H766       H    0.4338106544    1.0419277409   -0.0895825687
H767       H    0.4099662005    0.9907531306   -0.3408659059
H768       H    0.3431828765    0.9424754708   -0.2933098589
C749       C    0.3509832302    0.9579129453    0.2218383185
C750       C    0.3506379161    0.9585719228    0.3103423253
C751       C    0.3840698292    0.9782196978    0.3549884084
C752       C    0.4193061249    0.9981112057    0.3123573057
C753       C    0.4196470346    0.9975064369    0.2235072931
C754       C    0.3860705682    0.9777257777    0.1793638192
H755       H    0.3232021687    0.9431734439    0.3424923983
H756       H    0.3832896944    0.9784505356    0.4237942387
H757       H    0.4466915130    1.0127408088    0.1894936699
H758       H    0.3859217322    0.9768718772    0.1106584406
C739       C    0.1352696931    0.7091717141   -0.3042140179
C740       C    0.1654187363    0.7167204109   -0.2547148151
C741       C    0.1840291817    0.7507237105   -0.2032168295
C742       C    0.1730179272    0.7785699239   -0.1992777220
C743       C    0.1427058380    0.7709539609   -0.2488614603
C744       C    0.1242927462    0.7368950538   -0.3002941831
H745       H    0.1735625705    0.6948920862   -0.2581805389
H746       H    0.2074068502    0.7561257207   -0.1651146455
H747       H    0.1338283378    0.7922225026   -0.2466036703
H748       H    0.1009221720    0.7307161335   -0.3392434061
C729       C    0.1387616512    0.7100204730    0.3172508812
C730       C    0.1663812060    0.7473174700    0.3482264072
C731       C    0.1826814658    0.7801514782    0.2975087391
C732       C    0.1718051991    0.7768265357    0.2133905268
C733       C    0.1440278261    0.7393932591    0.1823460838
C734       C    0.1279193448    0.7067007167    0.2334840199
H735       H    0.1744418645    0.7494847027    0.4134331793
H736       H    0.2041073599    0.8089363999    0.3226087936
H737       H    0.1352926802    0.7362900929    0.1173274154
H738       H    0.1065335042    0.6775528591    0.2101910640
C719       C    0.4228111905    0.6561457464    0.7421210577
C720       C    0.4225148628    0.6223458893    0.7629716925
C721       C    0.4414384816    0.6080764804    0.7124121577
C722       C    0.4615345171    0.6272958816    0.6386963947
C723       C    0.4618855763    0.6612692250    0.6178505175
C724       C    0.4428276360    0.6752968377    0.6687186433
H725       H    0.4069630344    0.6078487088    0.8202556165
H726       H    0.4409296400    0.5817658346    0.7295679738
H727       H    0.4772920176    0.6764999828    0.5609513475
H728       H    0.4427239024    0.7014295692    0.6531604682
C709       C    0.4261084658    0.6562320691    1.1644783305
C710       C    0.4096778866    0.6296236615    1.2300879399
C711       C    0.4302981290    0.6176659819    1.2727730368
C712       C    0.4683989061    0.6320597084    1.2512603738
C713       C    0.4849100301    0.6588271594    1.1854901388
C714       C    0.4640544768    0.6705772331    1.1430482341
H715       H    0.3802372345    0.6188215167    1.2462251061
H716       H    0.4170887828    0.5969690584    1.3236545232
H717       H    0.5143817033    0.6702447047    1.1679857092
H718       H    0.4764145139    0.6911206053    1.0918300641
C699       C    0.1749030883    0.6079049300    0.6802361256
C700       C    0.1748884608    0.6074446956    0.7685667356
C701       C    0.2084990668    0.6249005264    0.8123058877
C702       C    0.2435916182    0.6436346177    0.7689078399
C703       C    0.2436041693    0.6441556900    0.6802374373
C704       C    0.2098475415    0.6265657272    0.6369984785
H705       H    0.1475667401    0.5929640721    0.8013250536
H706       H    0.2079765982    0.6242864456    0.8809905235
H707       H    0.2705322699    0.6585176628    0.6456360159
H708       H    0.2094356543    0.6265974794    0.5684286509
C689       C    0.2433578362    0.6439820109    1.1845015848
C690       C    0.2427919253    0.6640065313    1.2593497527
C691       C    0.2118336372    0.6473722578    1.3156012567
C692       C    0.1801198439    0.6097986749    1.2989087778
C693       C    0.1807191274    0.5896684773    1.2238351059
C694       C    0.2117807775    0.6065589948    1.1678662489
H695       H    0.2675383009    0.6929763149    1.2715786827
H696       H    0.2118661350    0.6633403141    1.3735237737
H697       H    0.1563824089    0.5605521790    1.2099030380
H698       H    0.2125563186    0.5914003423    1.1094122875
C679       C    0.5854432549    0.8008438233   -0.2253702890
C680       C    0.5521734779    0.7646277748   -0.2404746958
C681       C    0.5519163410    0.7358546707   -0.2950375808
C682       C    0.5852010206    0.7423155753   -0.3366511164
C683       C    0.6186134142    0.7786491328   -0.3213655297
C684       C    0.6185975029    0.8072846775   -0.2667930357
H685       H    0.5266730257    0.7599825368   -0.2077006438
H686       H    0.5258029687    0.7078536575   -0.3060415250
H687       H    0.6446385898    0.7841475610   -0.3531151616
H688       H    0.6441934243    0.8355736181   -0.2546801992
C669       C    0.5877360711    0.8017515940    0.1920344220
C670       C    0.5568144141    0.7723714433    0.2372954553
C671       C    0.5595124721    0.7444867701    0.2807698072
C672       C    0.5935191745    0.7450434985    0.2806164359
C673       C    0.6245800295    0.7745839733    0.2352977766
C674       C    0.6216092276    0.8023179029    0.1918811018
H675       H    0.5307339320    0.7723575651    0.2370823711
H676       H    0.5351989166    0.7218536875    0.3156686765
H677       H    0.6511227497    0.7754281141    0.2344742084
H678       H    0.6453499780    0.8252137946    0.1562790185
C659       C    0.5459983827    1.0064803686   -0.2233693355
C660       C    0.5282757135    0.9841453676   -0.1517469927
C661       C    0.5406614649    0.9614371021   -0.1178913632
C662       C    0.5714916250    0.9603040188   -0.1546903990
C663       C    0.5893241958    0.9827837213   -0.2265072644
C664       C    0.5767070385    1.0053632705   -0.2600239212
H665       H    0.5045504035    0.9853841732   -0.1237975609
H666       H    0.5265678894    0.9442590010   -0.0621573783
H667       H    0.6132278393    0.9822235960   -0.2558261790
H668       H    0.5901248608    1.0227490561   -0.3157413618
C649       C    0.5707130150    0.9566613243    0.2013189616
C650       C    0.5814262807    0.9962563522    0.2107286537
C651       C    0.5677312512    1.0095122691    0.2783373860
C652       C    0.5426834848    0.9834387761    0.3394797136
C653       C    0.5319822183    0.9437009064    0.3301083654
C654       C    0.5457730817    0.9306885223    0.2622081987
H655       H    0.6008889049    1.0161096498    0.1631457075
H656       H    0.5763615128    1.0403992566    0.2847136972
H657       H    0.5125869122    0.9231077339    0.3768603714
H658       H    0.5376068304    0.9000158988    0.2539768200
C639       C    0.9428571336    0.4233838027    0.2986368874
C640       C    0.9291795295    0.4249160573    0.2208897489
C641       C    0.9026654111    0.3906688574    0.1776264004
C642       C    0.8887410782    0.3533865656    0.2109224704
C643       C    0.9024250653    0.3518558972    0.2890503577
C644       C    0.9289906308    0.3862589535    0.3318201037
H645       H    0.9401013407    0.4539336580    0.1960079343
H646       H    0.8923200573    0.3923936190    0.1172608478
H647       H    0.8919576811    0.3232234153    0.3157170160
H648       H    0.9399380740    0.3855012125    0.3920950311
C629       C    0.9366118793    0.4199522631   -0.3106813676
C630       C    0.9454981183    0.3918214718   -0.2928386465
C631       C    0.9209056215    0.3590782176   -0.2452624359
C632       C    0.8862556766    0.3532362663   -0.2137103825
C633       C    0.8773075707    0.3814440631   -0.2317550036
C634       C    0.9021031076    0.4141391706   -0.2792793518
H635       H    0.9723228691    0.3966441334   -0.3178288515
H636       H    0.9282500155    0.3374833320   -0.2320046336
H637       H    0.8505984007    0.3773863235   -0.2077626568
H638       H    0.8956203216    0.4362689608   -0.2933945548
C619       C    0.6458011348    0.1448848422   -0.2472683004
C620       C    0.6605312405    0.1814261638   -0.2044135873
C621       C    0.6944478370    0.1987034534   -0.1619381359
C622       C    0.7150223175    0.1799221711   -0.1609253701
C623       C    0.7002647276    0.1432687803   -0.2040784128
C624       C    0.6662878883    0.1261760813   -0.2462832535
H625       H    0.6443920366    0.1956697078   -0.2059207570
H626       H    0.7055034954    0.2271358643   -0.1289657970
H627       H    0.7158251120    0.1283096587   -0.2038878372
H628       H    0.6544651713    0.0977712202   -0.2795925129
C609       C    0.7108050885    0.1749194705    0.2018254207
C610       C    0.6833689701    0.1362888233    0.1776573706
C611       C    0.6522010692    0.1130416570    0.2301398313
C612       C    0.6473043785    0.1277481109    0.3092206831
C613       C    0.6748164112    0.1665560200    0.3334125293
C614       C    0.7059332441    0.1895764753    0.2805726401
H615       H    0.6874503329    0.1253363694    0.1162615954
H616       H    0.6311279792    0.0830715826    0.2103535946
H617       H    0.6714732230    0.1784000464    0.3944720039
H618       H    0.7275054306    0.2195682201    0.2986338069
C599       C    0.5771263901    0.5021269042    0.6030192645
C600       C    0.5863986777    0.4768012519    0.5592796028
C601       C    0.6093152155    0.4657310075    0.5947657465
C602       C    0.6238354826    0.4796625868    0.6759500133
C603       C    0.6144697376    0.5050328040    0.7199174628
C604       C    0.5915776717    0.5160012570    0.6838781038
H605       H    0.5748917204    0.4661624461    0.4966869154
H606       H    0.6162347277    0.4460047042    0.5598988846
H607       H    0.6254942055    0.5161136041    0.7828360594
H608       H    0.5842458090    0.5357328934    0.7170051980
C589       C    0.5889760426    0.5076301651    1.2255970633
C590       C    0.6248193603    0.5361108248    1.1950911855
C591       C    0.6426027111    0.5274962294    1.1279591595
C592       C    0.6250003854    0.4898095632    1.0885697174
C593       C    0.5889867980    0.4612385994    1.1191041282
C594       C    0.5714357309    0.4700968852    1.1863730663
H595       H    0.6380523332    0.5651498402    1.2259615347
H596       H    0.6704666430    0.5499915051    1.1050098364
H597       H    0.5749630302    0.4318948763    1.0893590985
H598       H    0.5436659823    0.4482433007    1.2108668223
C579       C    0.6150342114    0.2987417168    0.7159192353
C580       C    0.6337926822    0.2785682366    0.6972991700
C581       C    0.6149508049    0.2376269793    0.7007183171
C582       C    0.5763617188    0.2152336785    0.7229322580
C583       C    0.5575165335    0.2354846214    0.7414787787
C584       C    0.5766016177    0.2764479219    0.7380306671
H585       H    0.6635910537    0.2962346542    0.6799819902
H586       H    0.6299613682    0.2224104869    0.6860171470
H587       H    0.5276349422    0.2185990678    0.7588469863
H588       H    0.5624217646    0.2925015903    0.7525728236
C569       C    0.5791280376    0.2150373379    1.2297895505
C570       C    0.5900066634    0.2520750657    1.2665268710
C571       C    0.6035374300    0.2850507933    1.2171996446
C572       C    0.6066358872    0.2821116935    1.1286729539
C573       C    0.5956502546    0.2449116970    1.0917858091
C574       C    0.5822045467    0.2120993304    1.1416258075
H575       H    0.5873603321    0.2539002222    1.3350012482
H576       H    0.6118591104    0.3136243419    1.2467898727
H577       H    0.5978893637    0.2421174723    1.0233192660
H578       H    0.5737675873    0.1831954402    1.1139790371
C559       C    0.6859136877    0.5347909603   -0.2267987500
C560       C    0.6505190017    0.5309765027   -0.2242832621
C561       C    0.6427228710    0.5528305140   -0.2763080142
C562       C    0.6702526472    0.5794385885   -0.3332307949
C563       C    0.7057652264    0.5832140777   -0.3358574511
C564       C    0.7133347398    0.5612828275   -0.2834917927
H565       H    0.6294687003    0.5102184175   -0.1801682111
H566       H    0.6150488246    0.5494925348   -0.2735641528
H567       H    0.7274169031    0.6037051484   -0.3795383569
H568       H    0.7407188044    0.5640341400   -0.2845946028
C549       C    0.6759243427    0.5897401253    0.2811714435
C550       C    0.7107194228    0.5922637035    0.2811568588
C551       C    0.7161203258    0.5639954283    0.2386467372
C552       C    0.6866938363    0.5319829555    0.1941885613
C553       C    0.6517816999    0.5294904710    0.1940826759
C554       C    0.6466145861    0.5578657606    0.2368893296
H555       H    0.7332507771    0.6172226379    0.3155664717
H556       H    0.7433596912    0.5664146634    0.2392556981
H557       H    0.6286839664    0.5048758316    0.1600097557
H558       H    0.6197251447    0.5562118221    0.2376463893
C539       C    0.9103140511    0.5348243734    0.3026544539
C540       C    0.9062836485    0.5190308481    0.2200341288
C541       C    0.8737953275    0.5067854058    0.1748950048
C542       C    0.8439779086    0.5099849046    0.2110364576
C543       C    0.8480557195    0.5259061659    0.2939300586
C544       C    0.8806263235    0.5380207002    0.3386604521
H545       H    0.9295951604    0.5168345211    0.1927846949
H546       H    0.8711312165    0.4945858600    0.1107054676
H547       H    0.8252249257    0.5285713906    0.3228941877
H548       H    0.8840877351    0.5502226868    0.4029273007
C529       C    0.8442817587    0.5089475461   -0.2091542648
C530       C    0.8445229748    0.5145697198   -0.2957343564
C531       C    0.8770829699    0.5274126881   -0.3462004661
C532       C    0.9108042680    0.5350893359   -0.3116047883
C533       C    0.9105406591    0.5293767524   -0.2247107843
C534       C    0.8778588577    0.5165839495   -0.1746841327
H535       H    0.8182337207    0.5084144492   -0.3216923825
H536       H    0.8767732655    0.5316171752   -0.4134125961
H537       H    0.9364192910    0.5352074470   -0.1968829481
H538       H    0.8772963583    0.5122093775   -0.1073440524
loop_
_geom_bond_atom_site_label_1
_geom_bond_atom_site_label_2
_geom_bond_distance
_geom_bond_site_symmetry_2
_ccdc_geom_bond_type
