data_csq_v1-tetracenter_v2-8c_Zr_1_Ch_dummy_1-tetraedgenobond
_audit_creation_date              2024-12-04
_audit_creation_method            'tobacco_3.0'
_symmetry_space_group_name_H-M    'P1'
_symmetry_Int_Tables_number       1
_symmetry_cell_setting            triclinic
loop_
_symmetry_equiv_pos_as_xyz
  x,y,z
_cell_length_a                    43.3228992348203
_cell_length_b                    43.32702662595042
_cell_length_c                    16.002633995896637
_cell_angle_alpha                 89.9993317235595
_cell_angle_beta                  89.99911579435923
_cell_angle_gamma                 120.00037303668773
loop_
_atom_site_label
_atom_site_type_symbol
_atom_site_fract_x
_atom_site_fract_y
_atom_site_fract_z
N1         N    0.7962885352    0.5003694810   -0.0015321229
C2         C    0.8147442463    0.4992960056   -0.0710157922
C3         C    0.8151021925    0.4987737258    0.0666435829
C4         C    0.8449446617    0.4961371291   -0.0457208361
C5         C    0.8451412276    0.4957754565    0.0391372798
N6         N    0.7496355797    0.5003800708   -0.1246865891
C7         C    0.7752843965    0.5012820866   -0.1778564052
C8         C    0.7240659393    0.5005993037   -0.1762002625
C9         C    0.7339650410    0.5016547337   -0.2625021450
C10        C    0.7657782003    0.5026067226   -0.2634873423
N11        N    0.7033017662    0.4987742751    0.0015751633
C12        C    0.6836571921    0.4987871352   -0.0666687035
C13        C    0.6845371363    0.4993405497    0.0710459232
C14        C    0.6524174292    0.4996620791   -0.0392665179
C15        C    0.6529863140    0.5000537177    0.0456425103
N16        N    0.7507585309    0.5004134197    0.1246746458
C17        C    0.7766025458    0.5007343616    0.1761467107
C18        C    0.7259149749    0.5011100970    0.1778888040
C19        C    0.7364959442    0.5019341920    0.2635415297
C20        C    0.7679481601    0.5021491297    0.2624426798
C21        C    0.8059944816    0.5004669749   -0.1546216376
C22        C    0.8068949256    0.4995344425    0.1508583205
C23        C    0.6944697099    0.5004655746    0.1546586545
C24        C    0.6926408829    0.4995330079   -0.1508953374
H25        H    0.8631983717    0.4941853188   -0.0883650625
H26        H    0.8636001130    0.4934721438    0.0804010146
H27        H    0.7183131233    0.5018054307   -0.3147931492
H28        H    0.7816169316    0.5038032220   -0.3167499711
H29        H    0.6330657363    0.5003260990   -0.0806529481
H30        H    0.6341944852    0.5011001666    0.0882279007
H31        H    0.7214727430    0.5023756817    0.3168673246
H32        H    0.7840850626    0.5029479933    0.3146763579
Co33      Co    0.7499912339    0.4999851845    0.0000001606
N34        N    0.4908775164    0.1950528673    0.9997788063
C35        C    0.4919514568    0.1762874723    1.0686299059
C36        C    0.4924737942    0.1765498344    0.9309602992
C37        C    0.4951112371    0.1462066148    1.0422869818
C38        C    0.4954729488    0.1463924268    0.9574226980
N39        N    0.4908660431    0.2411425914    1.1244654503
C40        C    0.4899644215    0.2152587710    1.1767989314
C41        C    0.4906463032    0.2664755425    1.1768235965
C42        C    0.4895909531    0.2561893298    1.2628094996
C43        C    0.4886394687    0.2243773838    1.2627594281
N44        N    0.4924711235    0.2880370490    0.9997171466
C45        C    0.4924578910    0.3073706312    1.0686051032
C46        C    0.4919044312    0.3071112775    0.9308807795
C47        C    0.4915822613    0.3387282011    1.0422513941
C48        C    0.4911905900    0.3385419482    0.9573363500
N49        N    0.4908327048    0.2411433196    0.8750861887
C50        C    0.4905122186    0.2155358254    0.8227695099
C51        C    0.4901354812    0.2662221337    0.8227081838
C52        C    0.4893114983    0.2560289183    0.7367259008
C53        C    0.4890971355    0.2245773802    0.7367892182
C54        C    0.4907802011    0.1846589218    1.1525379339
C55        C    0.4917128395    0.1851350104    0.8470355068
C56        C    0.4907794746    0.2975571336    0.8469647313
C57        C    0.4917121131    0.2980090324    1.1525410367
H58        H    0.4970635997    0.1277641573    1.0842927914
H59        H    0.4977768522    0.1281228919    0.9155141915
H60        H    0.4894399446    0.2716028385    1.3156161611
H61        H    0.4874431462    0.2083014549    1.3155146504
H62        H    0.4909178055    0.3578899225    1.0842849930
H63        H    0.4901436734    0.3575222137    0.9153921886
H64        H    0.4888696756    0.2712896562    0.6839076423
H65        H    0.4882984931    0.2086786622    0.6840395477
Co66      Co    0.4912609739    0.2413487907    0.9997696863
N67        N    0.7037366892    0.1954518031    0.0015457419
C68        C    0.6852822532    0.1759236075    0.0710306230
C69        C    0.6849238197    0.1750428645   -0.0666286894
C70        C    0.6550834995    0.1425654445    0.0457377593
C71        C    0.6548866358    0.1420068883   -0.0391203164
N72        N    0.7503878871    0.2421141787    0.1246973553
C73        C    0.7247404363    0.2173684643    0.1778686690
C74        C    0.7759564792    0.2679023363    0.1762094486
C75        C    0.7660581016    0.2590593150    0.2625118539
C76        C    0.7342463908    0.2281992384    0.2634989218
N77        N    0.7967191090    0.2868401108   -0.0015671043
C78        C    0.8163630083    0.3064971181    0.0666755607
C79        C    0.8154824978    0.3061700378   -0.0710390553
C80        C    0.8476010675    0.3386105568    0.0392713972
C81        C    0.8470318300    0.3384329697   -0.0456376267
N82        N    0.7492639815    0.2410236096   -0.1246638134
C83        C    0.7234209761    0.2155012362   -0.1761343234
C84        C    0.7741060558    0.2665627075   -0.1778795446
C85        C    0.7635251725    0.2568058259   -0.2635316877
C86        C    0.7320744593    0.2255696646   -0.2624309319
C87        C    0.6940318194    0.1858443098    0.1546358423
C88        C    0.6931302772    0.1840101787   -0.1508439880
C89        C    0.8055499581    0.2973624523   -0.1546512671
C90        C    0.8073800189    0.2982599243    0.1509026856
H91        H    0.6368310315    0.1223608422    0.0883832536
H92        H    0.6364286980    0.1212452941   -0.0803827433
H93        H    0.7817094597    0.2748615744    0.3148018895
H94        H    0.7184085236    0.2135577291    0.3167624255
H95        H    0.8669519285    0.3586257135    0.0806565927
H96        H    0.8658224784    0.3582703542   -0.0882242474
H97        H    0.7785473906    0.2722697440   -0.3168584353
H98        H    0.7159380483    0.2102319527   -0.3146636857
Co99      Co    0.7500317855    0.2413631673    0.0000106582
N100       N    0.4972533147    0.7904416669    0.9996865910
C101       C    0.4961796216    0.8092068688    1.0685372672
C102       C    0.4956572842    0.8089451656    0.9308677206
C103       C    0.4930202469    0.8392880845    1.0421938096
C104       C    0.4926585351    0.8391026790    0.9573295675
N105       N    0.4972641975    0.7443510552    1.1243745401
C106       C    0.4981661449    0.7702347813    1.1767071966
C107       C    0.4974836115    0.7190176903    1.1767333820
C108       C    0.4985390866    0.7293035470    1.2627188870
C109       C    0.4994909725    0.7611156848    1.2626678179
N110       N    0.4956585267    0.6974569104    0.9996277274
C111       C    0.4956715114    0.6781228769    1.0685162306
C112       C    0.4962249710    0.6783828794    0.9307918437
C113       C    0.4965467338    0.6467652201    1.0421633218
C114       C    0.4969384050    0.6469518725    0.9572482329
N115       N    0.4972975356    0.7443515111    0.8749952750
C116       C    0.4976183478    0.7699594137    0.8226778382
C117       C    0.4979944334    0.7192727762    0.8226179105
C118       C    0.4988185417    0.7294664547    0.7366352555
C119       C    0.4990333060    0.7609181912    0.7366976598
C120       C    0.4973507626    0.8008349521    1.1524454142
C121       C    0.4964181241    0.8003603234    0.8469430948
C122       C    0.4973500428    0.6879374687    0.8468754111
C123       C    0.4964174044    0.6874841275    1.1524518235
H124       H    0.4910681331    0.8577304857    1.0841992936
H125       H    0.4903548806    0.8573725595    0.9154207759
H126       H    0.4986898967    0.7138896869    1.3155259701
H127       H    0.5006874932    0.7771914507    1.3154224638
H128       H    0.4972109399    0.6276031679    1.0841973967
H129       H    0.4979850718    0.6279716713    0.9153045036
H130       H    0.4992601661    0.7142058643    0.6838173848
H131       H    0.4998321470    0.7768172513    0.6839474581
Co132     Co    0.4968692666    0.7441454520    0.9996788218
N133       N    0.2010267235    0.4942964098   -0.0015107352
C134       C    0.1825700612    0.4953703599   -0.0709905086
C135       C    0.1822145272    0.4958926552    0.0666689420
C136       C    0.1523705424    0.4985300309   -0.0456891770
C137       C    0.1521754641    0.4988917129    0.0391689805
N138       N    0.2476769531    0.4942846537   -0.1246750472
C139       C    0.2220275095    0.4933832678   -0.1778394505
C140       C    0.2732453723    0.4940647789   -0.1761941171
C141       C    0.2633448667    0.4930095832   -0.2624939108
C142       C    0.2315320642    0.4920583776   -0.2634723946
N143       N    0.2940124239    0.4958893112    0.0015769272
C144       C    0.3136555649    0.4958759599   -0.0666710855
C145       C    0.3127780134    0.4953225605    0.0710437264
C146       C    0.3448953920    0.4950002241   -0.0392754935
C147       C    0.3443279816    0.4946085948    0.0456336544
N148       N    0.2465583528    0.4942513323    0.1246864242
C149       C    0.2207155483    0.4939310324    0.1761639431
C150       C    0.2714025065    0.4935540254    0.1778953387
C151       C    0.2608231388    0.4927301845    0.2635502969
C152       C    0.2293712916    0.4925160304    0.2624580848
C153       C    0.1913182329    0.4941991573   -0.1545982012
C154       C    0.1904231374    0.4951317238    0.1508819469
C155       C    0.3028469903    0.4941977697    0.1546585531
C156       C    0.3046705026    0.4951303024   -0.1508958236
H157       H    0.1341163676    0.5004823218   -0.0883295497
H158       H    0.1337175849    0.5011955158    0.0804366123
H159       H    0.2789956753    0.4928584930   -0.3147882184
H160       H    0.2156925745    0.4908622592   -0.3167316812
H161       H    0.3642461064    0.4943357122   -0.0806660082
H162       H    0.3631202901    0.4935616631    0.0882150780
H163       H    0.2758470688    0.4922883138    0.3168729208
H164       H    0.2132354795    0.4917175601    0.3146951680
Co165     Co    0.2473234822    0.4946795538    0.0000117776
N166       N    0.2013762191    0.6978251258   -0.0015099787
C167       C    0.1818469522    0.6793696185   -0.0709903369
C168       C    0.1809678268    0.6790128027    0.0666691229
C169       C    0.1484885027    0.6491705783   -0.0456899051
C170       C    0.1479309361    0.6489747043    0.0391682605
N171       N    0.2480370605    0.7444747896   -0.1246727033
C172       C    0.2232908546    0.7188268473   -0.1778380163
C173       C    0.2738246172    0.7700427809   -0.1761909118
C174       C    0.2649807204    0.7601435278   -0.2624910854
C175       C    0.2341208130    0.7283319860   -0.2634706906
N176       N    0.2927642617    0.7908072806    0.0015809135
C177       C    0.3124204202    0.8104503311   -0.0666664312
C178       C    0.3120951632    0.8095716439    0.0710483284
C179       C    0.3445343675    0.8416888988   -0.0392698113
C180       C    0.3443579142    0.8411207952    0.0456393014
N181       N    0.2469496083    0.7433540010    0.1246887287
C182       C    0.2214279381    0.7175116988    0.1761653550
C183       C    0.2724895029    0.7681968719    0.1778984607
C184       C    0.2627338467    0.7576172141    0.2635530253
C185       C    0.2314977127    0.7261665280    0.2624597340
C186       C    0.1917668346    0.6881183649   -0.1545977793
C187       C    0.1899363365    0.6872204557    0.1508823764
C188       C    0.3032888351    0.7996403616    0.1546627715
C189       C    0.3041823178    0.8014664331   -0.1508915054
H190       H    0.1282829965    0.6309172065   -0.0883308200
H191       H    0.1271694178    0.6305168423    0.0804353575
H192       H    0.2807823563    0.7757942623   -0.3147848663
H193       H    0.2194788672    0.7124936824   -0.3167305650
H194       H    0.3645491344    0.8610393702   -0.0806596944
H195       H    0.3641960293    0.8599121743    0.0882213223
H196       H    0.2781985143    0.7726401815    0.3168761427
H197       H    0.2161608046    0.7100309208    0.3146962355
Co198     Co    0.2472875292    0.7441201681    0.0000141255
D261       D    0.9896791178    0.4530966133    0.6551410274
D262       D    0.9787615030    0.4575209879    0.5748993229
D263       D    1.0089032891    0.4580728409    0.5392482048
D264       D    1.0198209038    0.4536484664    0.6194899093
D265       D    0.9743070417    0.4365960854    0.6100153027
D266       D    1.0044488277    0.4371479384    0.5743641845
D267       D    1.0242753651    0.4745733688    0.5843739292
D268       D    0.9941335791    0.4740215158    0.6200250473
Zr211     Zr    0.9934402514    0.4539354677    0.5894708646
D269       D    1.0145710172    0.5503596359    0.6149385861
D270       D    1.0059786874    0.5572241062    0.5343714847
D271       D    0.9764036035    0.5222353806    0.5311972002
D272       D    0.9849959333    0.5153709103    0.6117643016
D273       D    0.9994086267    0.5598994607    0.5927436674
D274       D    0.9698335427    0.5249107351    0.5895693829
D275       D    0.9915659940    0.5126955558    0.5533921190
D276       D    1.0211410780    0.5476842814    0.5565664035
Zr214     Zr    0.9934274226    0.5309176587    0.5894672035
D277       D    1.0191545152    0.4572451586    0.3617921633
D278       D    1.0056675935    0.4380780115    0.4371493009
D279       D    0.9783552817    0.4469179812    0.4374681417
D280       D    0.9918422034    0.4660851282    0.3621110041
D281       D    1.0013097738    0.4320489469    0.3763886584
D282       D    0.9739974620    0.4408889164    0.3767074992
D283       D    0.9962000232    0.4721141929    0.4228716466
D284       D    1.0235123350    0.4632742232    0.4225528058
Zr231     Zr    0.9977587534    0.4560953836    0.3818466392
D285       D    0.9770286193    0.5320063519    0.3569053714
D286       D    0.9864025264    0.5483147085    0.4365086000
D287       D    1.0148250448    0.5411494908    0.4409864128
D288       D    1.0054511377    0.5248411341    0.3613831839
D289       D    0.9931731410    0.5567680558    0.3776465323
D290       D    1.0215956594    0.5496028381    0.3821243451
D291       D    0.9986805231    0.5163877867    0.4202452517
D292       D    0.9702580047    0.5235530045    0.4157674392
Zr234     Zr    0.9977459246    0.5330775747    0.3818429781
D298       D    0.9615803000    0.4765433172    0.4695698127
D299       D    0.9477221171    0.4869301965    0.5370712885
D300       D    0.9129396570    0.4594191388    0.5168536162
D293       D    0.9220450067    0.4424380264    0.5097708597
D294       D    0.9176924905    0.4660133721    0.4564348975
D295       D    0.9524749504    0.4935244297    0.4766525695
D296       D    0.9568274666    0.4699490840    0.5299885317
D297       D    0.9267978400    0.4490322596    0.4493521407
Zr237     Zr    0.9424772368    0.4669441760    0.4795871670
D301       D    1.0691450598    0.5445775636    0.4615433247
D302       D    1.0381687683    0.5253033874    0.5108446244
D303       D    1.0387145369    0.4934912656    0.4946618250
D304       D    1.0696908284    0.5127654420    0.4453605257
D305       D    1.0643921907    0.5379833982    0.5219620719
D306       D    1.0649379593    0.5061712766    0.5057792728
D307       D    1.0434674059    0.5000854311    0.4342430778
D308       D    1.0429216373    0.5318975528    0.4504258769
Zr238     Zr    1.0487142636    0.5200715290    0.4917272841
H254       H    0.9787470518    0.3886488742    0.5530070917
H258       H    0.9929364286    0.3970543414    0.6444278370
O213       O    0.9981024241    0.4071915785    0.5871583531
H256       H    1.0043804251    0.5238216697    0.7483299392
H259       H    0.9900261012    0.5503711822    0.7420480093
O215       O    0.9855515170    0.5268662908    0.7215393894
H252       H    1.0159512710    0.4780623099    0.2263143196
H257       H    1.0005490554    0.4369547086    0.2286160404
O232       O    0.9957872365    0.4558714972    0.2485162015
H250       H    1.0169088373    0.5986854826    0.4240974327
H260       H    0.9987304541    0.5911852616    0.3360973552
O236       O    0.9955947838    0.5809810284    0.3930104027
H255       H    0.9705300561    0.4590980778    0.7365427173
O212       O    0.9907135508    0.4557078967    0.7205394509
H249       H    0.9763761139    0.5805834334    0.5661390945
O216       O    0.9995905798    0.5825610439    0.5793782088
H245       H    1.0398133819    0.5156226931    0.6707678404
O218       O    1.0254309041    0.5084280133    0.6101741943
H253       H    1.0163870297    0.4096805727    0.4260730167
O233       O    0.9964938439    0.4066076167    0.3899398609
H251       H    0.9842325359    0.5107316884    0.2282725551
O235       O    1.0019758003    0.5345188339    0.2498178066
H247       H    1.0472858798    0.5193548728    0.3115063626
O239       O    1.0304569383    0.5109412459    0.3685333588
H246       H    0.9467842611    0.5352823747    0.4800777544
O242       O    0.9629526133    0.5219672664    0.4819251026
H248       H    0.9468063303    0.4029247547    0.4800834622
O243       O    0.9629675138    0.4324073210    0.4819305355
O217       O    0.9607292377    0.4760717965    0.6027804839
O240       O    0.9657552719    0.4785850291    0.3611396483
O241       O    1.0282335627    0.4650457760    0.4893887401
O244       O    1.0282186622    0.5546057214    0.4893833072
O199       O    0.9444619801    0.4105702251    0.6360877768
O200       O    0.9026206893    0.4210960851    0.5444424326
C201       C    0.9103378189    0.4047188290    0.6118422934
O202       O    1.0402439740    0.5732036082    0.6470376789
O203       O    1.0856849214    0.5644744593    0.5653627675
C204       C    1.0752126535    0.5794777331    0.6306805484
O205       O    0.9444426999    0.5252949998    0.6360900957
O206       O    0.9026120037    0.4729227675    0.5444423150
C207       C    0.9103224374    0.4970189051    0.6118379038
O208       O    1.0402632542    0.4584788334    0.6470353600
O209       O    1.0856936070    0.5126477769    0.5653628852
C210       C    1.0752280350    0.4871776570    0.6306849380
O219       O    1.0467488005    0.4617207052    0.3352243554
O220       O    1.0885741723    0.5140902749    0.4268715276
C221       C    1.0808690630    0.4899967999    0.3594765473
O222       O    0.9509282461    0.5285368716    0.3242790911
O223       O    0.9054925690    0.4743652655    0.4059509575
C224       C    0.9159634654    0.4998380480    0.3406295131
O225       O    1.0467295202    0.5764454799    0.3352266743
O226       O    1.0885654868    0.5659169573    0.4268714100
C227       C    1.0808536815    0.5822968760    0.3594721577
O228       O    0.9509475264    0.4138120968    0.3242767722
O229       O    0.9055012546    0.4225385831    0.4059510751
C230       C    0.9159788469    0.4075379719    0.3406339027
D371       D    0.4633900163    0.4530939313    0.3448540790
D372       D    0.4787309975    0.4575159458    0.4250963936
D373       D    0.4491422372    0.4580705157    0.4607457195
D374       D    0.4338012561    0.4536485014    0.3805034049
D375       D    0.4622574857    0.4365921040    0.3899808552
D376       D    0.4326687254    0.4371466739    0.4256301811
D377       D    0.4502747677    0.4745723431    0.4156189436
D378       D    0.4798635280    0.4740177732    0.3799696177
Zr321     Zr    0.4604671385    0.4539323401    0.4105240117
D379       D    0.5357773760    0.5503539605    0.3850542203
D380       D    0.5512336747    0.5572161833    0.4656217731
D381       D    0.5458128546    0.5222261452    0.4687981079
D382       D    0.5303565559    0.5153639224    0.3882305551
D383       D    0.5604799966    0.5598914131    0.4072499574
D384       D    0.5550591766    0.5249013750    0.4104262922
D385       D    0.5211102339    0.5126886926    0.4466023708
D386       D    0.5265310540    0.5476787307    0.4434260359
Zr324     Zr    0.5374744203    0.5309104691    0.4105270215
D387       D    0.4380612232    0.4572418018    0.6382011600
D388       D    0.4323783010    0.4380751589    0.5628449846
D389       D    0.4685305545    0.4469117854    0.5625276887
D390       D    0.4742134766    0.4660784281    0.6378838641
D391       D    0.4307050050    0.4320452143    0.6236059366
D392       D    0.4668572583    0.4408818406    0.6232886407
D393       D    0.4758867727    0.4721083729    0.5771229121
D394       D    0.4397345193    0.4632717464    0.5774402080
Zr341     Zr    0.4583061825    0.4560900744    0.6181479628
D395       D    0.5549579300    0.5319945489    0.6430898170
D396       D    0.5618965996    0.5483040014    0.5634858943
D397       D    0.5263092848    0.5411422139    0.5590064565
D398       D    0.5193706151    0.5248327614    0.6386103795
D399       D    0.5635802020    0.5567569016    0.6223474889
D400       D    0.5279928873    0.5495951142    0.6178680512
D401       D    0.5176870127    0.5163798611    0.5797487849
D402       D    0.5532743275    0.5235416486    0.5842282223
Zr344     Zr    0.5353134643    0.5330682034    0.6181509726
D408       D    0.5149351613    0.4765341795    0.5304267616
D409       D    0.5391821034    0.4869198695    0.4629260197
D410       D    0.5464470023    0.4594063485    0.4831459879
D403       D    0.5203582152    0.4424270061    0.4902283482
D404       D    0.5482888472    0.4660000010    0.5435643688
D405       D    0.5410239483    0.4935135219    0.5233444010
D406       D    0.5130933163    0.4699405270    0.4700083804
D407       D    0.5222000601    0.4490206586    0.5506467294
Zr347     Zr    0.5244366884    0.4669336514    0.5204106216
D411       D    0.4754210453    0.5445760853    0.5384462941
D412       D    0.4871191550    0.5253002576    0.4891469948
D413       D    0.4547559967    0.4934896748    0.5053300312
D414       D    0.4430578872    0.5127655026    0.5546293303
D415       D    0.4735793040    0.5379825007    0.4780278846
D416       D    0.4412161458    0.5061719179    0.4942109208
D417       D    0.4565977382    0.5000832595    0.5657484407
D418       D    0.4889608963    0.5318938422    0.5495654046
Zr348     Zr    0.4713412533    0.5200695552    0.5082637539
H364       H    0.4098620533    0.3886471974    0.4469892090
H368       H    0.4040815265    0.3970548289    0.3555675509
O323       O    0.4090538439    0.4071913802    0.4128366427
H366       H    0.5194271270    0.5238179402    0.2516636962
H369       H    0.5603343464    0.5503644620    0.2579462526
O325       O    0.5412997685    0.5268600892    0.2784553370
H362       H    0.4620828462    0.4780558707    0.7736790174
H367       H    0.4363701326    0.4369488412    0.7713785583
O342       O    0.4600517841    0.4558643715    0.7514785194
H360       H    0.5817705198    0.5986751854    0.5758948258
H370       H    0.5924452815    0.5911723732    0.6638960449
O346       O    0.5853757340    0.5809690391    0.6069832698
H365       H    0.4885416417    0.4590940488    0.2634534739
O322       O    0.4649682638    0.4557059809    0.2794555721
H359       H    0.6041981850    0.5805715420    0.4338557211
O326       O    0.5829630567    0.5825516576    0.4206152132
H355       H    0.4757946577    0.5156221909    0.3292237631
O328       O    0.4829796924    0.5084256372    0.3898183232
H363       H    0.3932573110    0.4096802141    0.5739208737
O343       O    0.4100754901    0.4066048828    0.6100552353
H361       H    0.5264745185    0.5107202042    0.7717223863
O345       O    0.5325234297    0.5345082283    0.7501758811
H357       H    0.4720502377    0.5193505959    0.6884847663
O349       O    0.4804641325    0.5109363308    0.6314588395
H356       H    0.5884789827    0.5352687057    0.5199191999
O352       O    0.5589942802    0.5219560275    0.5180710056
H358       H    0.4560782113    0.4029180697    0.5199146118
O353       O    0.4694051690    0.4324008079    0.5180663304
O327       O    0.5153164702    0.4760642128    0.3972161448
O350       O    0.5128009103    0.4785749063    0.6388566611
O351       O    0.4367863226    0.4650445160    0.5106039787
O354       O    0.5263754337    0.5545997357    0.5106086539
O309       O    0.4660713364    0.4105647854    0.3639103715
O310       O    0.5184366584    0.4210845632    0.4555581080
C311       C    0.4943410260    0.4047098040    0.3881579282
O312       O    0.5329538393    0.5731998257    0.3529534114
O313       O    0.4787835922    0.5644749377    0.4346257018
C314       C    0.5042618969    0.5794771093    0.3693084149
O315       O    0.5808336651    0.5252835066    0.3639070820
O316       O    0.5702802815    0.4729085109    0.4555577871
C317       C    0.5866711853    0.4970050097    0.3881615370
O318       O    0.4181915106    0.4584811045    0.3529567009
O319       O    0.4269399691    0.5126509900    0.4346260227
C320       C    0.4119317376    0.4871819036    0.3693048062
O329       O    0.4149442766    0.4617197000    0.6647672935
O330       O    0.4255003212    0.5140920326    0.5731171972
C331       C    0.4091067564    0.4899981968    0.6405128386
O332       O    0.5775864311    0.5285221021    0.6757176746
O333       O    0.5688406336    0.4743495536    0.5940489616
C334       C    0.5838462041    0.4998213030    0.6593695693
O335       O    0.5297066053    0.5764384212    0.6647640040
O336       O    0.4773439443    0.5659159804    0.5731168763
C337       C    0.5014369157    0.5822934026    0.6405164473
O338       O    0.4628241024    0.4138033809    0.6757209641
O339       O    0.5169970105    0.4225256058    0.5940492825
C340       C    0.4915160448    0.4075260973    0.6593659606
D481       D    0.5383175616    1.0017360201    0.3449020572
D482       D    0.5338855853    1.0126480055    0.4251429393
D483       D    0.5333434106    0.9825138973    0.4607942163
D484       D    0.5377753868    0.9716019120    0.3805533342
D485       D    0.5548157178    1.0171092526    0.3900303832
D486       D    0.5542735431    0.9869751444    0.4256816602
D487       D    0.5168452545    0.9671406649    0.4156658906
D488       D    0.5173874291    0.9972747730    0.3800146136
Zr431     Zr    0.5374778497    0.9979747938    0.4105721124
D489       D    0.4410354671    0.9768152871    0.3850886195
D490       D    0.4341635528    0.9854017426    0.4656545142
D491       D    0.4691511421    1.0149812798    0.4688343398
D492       D    0.4760230563    1.0063948243    0.3882684450
D493       D    0.4314868477    0.9919697561    0.4072818346
D494       D    0.4664744369    1.0215492932    0.4104616602
D495       D    0.4786997614    0.9998268108    0.4466411246
D496       D    0.4437121722    0.9702472737    0.4434612990
Zr434     Zr    0.4604743907    0.9979597561    0.4105630420
D497       D    0.5341696622    0.9722635651    0.6382504795
D498       D    0.5533395022    0.9857546485    0.5628964000
D499       D    0.5444872150    1.0130562193    0.5625758706
D500       D    0.5253173751    0.9995651359    0.6379299501
D501       D    0.5593668162    0.9901126803    0.6236580034
D502       D    0.5505145291    1.0174142511    0.6233374740
D503       D    0.5192900609    0.9952071041    0.5771683468
D504       D    0.5281423481    0.9679055333    0.5774888762
Zr451     Zr    0.5353126175    0.9936540850    0.6181960163
D505       D    0.4593724242    1.0143507024    0.6431245577
D506       D    0.4430653646    1.0049744861    0.5635187098
D507       D    0.4502429843    0.9765624697    0.5590423179
D508       D    0.4665500439    0.9859386860    0.6386481661
D509       D    0.4346103519    0.9982019401    0.6223794357
D510       D    0.4417879715    0.9697899238    0.6179030437
D511       D    0.4750050567    0.9927112320    0.5797874402
D512       D    0.4678274370    1.0211232483    0.5842638318
Zr454     Zr    0.4583091586    0.9936390473    0.6181869459
D518       D    0.5148485959    1.0298162488    0.5304691609
D519       D    0.5044558745    1.0436676949    0.4629658524
D520       D    0.5319613299    1.0784502482    0.4831877859
D513       D    0.5489502139    1.0693534709    0.4902734263
D514       D    0.5253651672    1.0736955792    0.5436054534
D515       D    0.4978597119    1.0389130260    0.5233835202
D516       D    0.5214447586    1.0345709177    0.4700514931
D517       D    0.5423540513    1.0645988019    0.5506910941
Zr457     Zr    0.5244437774    1.0489176351    0.5204532357
D521       D    0.4468342474    0.9222564800    0.5384852899
D522       D    0.4661040275    0.9532318116    0.4891869208
D523       D    0.4979246439    0.9526975038    0.5053749858
D524       D    0.4786548637    0.9217221722    0.5546733546
D525       D    0.4534303421    0.9270111846    0.4780675938
D526       D    0.4852509584    0.9264768768    0.4942556586
D527       D    0.4913285490    0.9479427992    0.5657926819
D528       D    0.4595079327    0.9484771070    0.5496046171
Zr458     Zr    0.4713405693    0.9426908822    0.5083052138
H474       H    0.6027760543    1.0126871042    0.4470465606
H478       H    0.5943761676    0.9984997581    0.3556245430
O433       O    0.5842362673    0.9933307985    0.4128923933
H476       H    0.4675811113    0.9870143511    0.2517015708
H479       H    0.4410188800    1.0013550208    0.2579789909
O435       O    0.4645280235    1.0058366176    0.2784914609
H472       H    0.5133415021    0.9754566815    0.7737248538
H477       H    0.5544549525    0.9908695495    0.7714298036
O452       O    0.5355318177    0.9956234570    0.7515264746
H470       H    0.3926913437    0.9744582153    0.5759217999
H480       H    0.4001843939    0.9926331814    0.6639229668
O456       O    0.4103920329    0.9957723964    0.6070115810
H475       H    0.5323099717    1.0208786459    0.2634992159
O432       O    0.5357079102    1.0007017524    0.2795032105
H469       H    0.4107880205    1.0149880839    0.4338827956
O436       O    0.4088186667    0.9917794826    0.4206435469
H465       H    0.4757928302    0.9515931727    0.3292653195
O438       O    0.4829824580    0.9659735171    0.3898600361
H473       H    0.5817483292    0.9750483122    0.5739774696
O453       O    0.5848138404    0.9949366587    0.6101109685
H471       H    0.4806516789    1.0071548541    0.7717609521
O455       O    0.4568650372    0.9894081536    0.7502119139
H467       H    0.4720514531    0.9441168581    0.6885262418
O459       O    0.4804630384    0.9609449148    0.6315004975
H466       H    0.4560882769    1.0445870725    0.5199513821
O462       O    0.4694129709    1.0284280296    0.5181063701
H468       H    0.5884824633    1.0446129151    0.5199675640
O463       O    0.5589976591    1.0284455487    0.5181157490
O437       O    0.5153239698    1.0306689264    0.3972585608
O460       O    0.5128045502    1.0256403240    0.6388990222
O461       O    0.5263740373    0.9631858115    0.5106526882
O464       O    0.4367893491    0.9631682924    0.5106433093
O419       O    0.5808387534    1.0469558175    0.3639619657
O420       O    0.5702920687    1.0887805837    0.4556052218
C421       C    0.5866786809    1.0810723635    0.3882081336
O422       O    0.4181954486    0.9511415595    0.3529859618
O423       O    0.4269409841    0.9057152954    0.4346626938
C424       C    0.4119317524    0.9161800636    0.3693423448
O425       O    0.4660822838    1.0469335689    0.3639406732
O426       O    0.5184510682    1.0887705087    0.4555967681
C427       C    0.4943531052    1.0810543336    0.3881972583
O428       O    0.5329519181    0.9511638081    0.3530072542
O429       O    0.4787819846    0.9057253704    0.4346711475
C430       C    0.5042573281    0.9161980935    0.3693532201
O439       O    0.5297020630    0.9446749483    0.6648177762
O440       O    0.4773359400    0.9028433324    0.5731622902
C441       C    0.5014312416    0.9105541837    0.6405611911
O442       O    0.4628324287    1.0404447092    0.6757511952
O443       O    0.5170050236    1.0858884707    0.5940879108
C444       C    0.4915270186    1.0754104238    0.6594052294
O445       O    0.4149455934    0.9446526997    0.6647964837
O446       O    0.4254949395    0.9028332574    0.5731538365
C447       C    0.4091056659    0.9105361538    0.6405503158
O448       O    0.5775888982    1.0404669578    0.6757724877
O449       O    0.5688460241    1.0858985457    0.5940963645
C450       C    0.5838525944    1.0754284537    0.6594161047
C759       C    0.3827712861    0.8831610891   -0.3071043256
C760       C    0.3742590907    0.8912169933   -0.2287301048
C761       C    0.3486360325    0.8646727466   -0.1776176571
C762       C    0.3305166976    0.8288414978   -0.2032368640
C763       C    0.3391102456    0.8207484024   -0.2818597347
C764       C    0.3647350497    0.8474782205   -0.3326305648
H765       H    0.3885437603    0.9190065887   -0.2096088397
H766       H    0.3423524581    0.8713993957   -0.1168507605
H767       H    0.3253160294    0.7931378183   -0.3026901775
H768       H    0.3715317043    0.8416228542   -0.3937179451
C749       C    0.3834878495    0.8856686961    0.3131368866
C750       C    0.3865661761    0.8872051888    0.2259596824
C751       C    0.3612674734    0.8600324045    0.1755702861
C752       C    0.3317327380    0.8301517291    0.2108682297
C753       C    0.3286115920    0.8286424301    0.2983849263
C754       C    0.3540738990    0.8559166729    0.3483086628
H755       H    0.4094708852    0.9105032970    0.1995004833
H756       H    0.3640620674    0.8616584150    0.1078930821
H757       H    0.3059140857    0.8056806839    0.3267526061
H758       H    0.3520777945    0.8550220351    0.4160677449
C739       C    0.1057305155    0.6079235578   -0.3130979905
C740       C    0.1185857576    0.5977712974   -0.2443336649
C741       C    0.1458225258    0.6230518137   -0.1940475942
C742       C    0.1612489726    0.6596725401   -0.2108192404
C743       C    0.1482970933    0.6698643461   -0.2797699174
C744       C    0.1210842402    0.6443925747   -0.3298091313
H745       H    0.1063493407    0.5693819985   -0.2319463689
H746       H    0.1554916454    0.6146972966   -0.1408076270
H747       H    0.1599605468    0.6981135111   -0.2936783904
H748       H    0.1109205246    0.6518879392   -0.3835297154
C729       C    0.1625555940    0.6608836790    0.2032403163
C730       C    0.1697628132    0.6555941901    0.2856215241
C731       C    0.1432044152    0.6300240065    0.3368001330
C732       C    0.1082344240    0.6086336526    0.3071142178
C733       C    0.1010168029    0.6139031462    0.2243582458
C734       C    0.1277327780    0.6395810372    0.1736530941
H735       H    0.1969307867    0.6722404120    0.3076786100
H736       H    0.1492699096    0.6262511232    0.4006886967
H737       H    0.0740716850    0.5975813940    0.2003854654
H738       H    0.1224908652    0.6440475928    0.1096687294
C719       C    0.3828877548    0.4912866257   -0.3071197466
C720       C    0.3928791436    0.5135274317   -0.2369565566
C721       C    0.3674760543    0.5148868448   -0.1858914179
C722       C    0.3308895043    0.4938418736   -0.2032632385
C723       C    0.3208591049    0.4714670314   -0.2736216751
C724       C    0.3464528034    0.4703201327   -0.3244292186
H725       H    0.4212435662    0.5295716538   -0.2241241104
H726       H    0.3757061141    0.5323174396   -0.1315657635
H727       H    0.2926385622    0.4550074514   -0.2880101018
H728       H    0.3390830095    0.4532603586   -0.3792308120
C709       C    0.3313977701    0.4923615052    0.2108379737
C710       C    0.3226004779    0.4765539085    0.2900365619
C711       C    0.3479957672    0.4748306476    0.3403801236
C712       C    0.3833809578    0.4890181681    0.3131253856
C713       C    0.3922248538    0.5049440614    0.2336727122
C714       C    0.3666372653    0.5064986557    0.1836826739
H715       H    0.2951776039    0.4657882116    0.3104177089
H716       H    0.3407058788    0.4624582316    0.4018054411
H717       H    0.4195018893    0.5160439939    0.2115759111
H718       H    0.3730668741    0.5185940920    0.1219741658
C699       C    0.1609331206    0.4923613701   -0.2107975707
C700       C    0.1499476533    0.5176169592   -0.2031779255
C701       C    0.1228523675    0.5160964345   -0.2532582034
C702       C    0.1056131473    0.4890154442   -0.3131156925
C703       C    0.1166012152    0.4636246893   -0.3206572634
C704       C    0.1437656327    0.4653845122   -0.2703946425
H705       H    0.1634296278    0.5383423593   -0.1564914216
H706       H    0.1146308385    0.5359399014   -0.2464927087
H707       H    0.1035483891    0.4424856321   -0.3667353265
H708       H    0.1526362778    0.4460220374   -0.2758093874
C689       C    0.1083703225    0.4912858152    0.3071132347
C690       C    0.1292209639    0.4767450545    0.3334445625
C691       C    0.1559802295    0.4779141169    0.2826986596
C692       C    0.1629218778    0.4938427086    0.2032452595
C693       C    0.1420290023    0.5084962810    0.1768770526
C694       C    0.1152809674    0.5071563187    0.2279940391
H695       H    0.1236379658    0.4646082706    0.3950973458
H696       H    0.1719517308    0.4664922413    0.3041559240
H697       H    0.1470355406    0.5209137121    0.1155014433
H698       H    0.0988213007    0.5182406114    0.2082532403
C679       C    0.5004104276    0.6088277204    0.6923470378
C680       C    0.5056045874    0.6408797251    0.6585283169
C681       C    0.5046034300    0.6667233533    0.7086356659
C682       C    0.4983765310    0.6614031508    0.7950448205
C683       C    0.4932250180    0.6292500146    0.8290143129
C684       C    0.4942143291    0.6035238554    0.7784025687
H685       H    0.5104954933    0.6446859084    0.5916886577
H686       H    0.5087097609    0.6914997180    0.6813275586
H687       H    0.4883494616    0.6246880927    0.8958089480
H688       H    0.4901204930    0.5784778064    0.8037713053
C669       C    0.4984701619    0.6592207035    1.2091991524
C670       C    0.4802213362    0.6487190138    1.2854069303
C671       C    0.4819561849    0.6234663765    1.3362604383
C672       C    0.5022091394    0.6077405333    1.3125610860
C673       C    0.5205800080    0.6183326178    1.2361199559
C674       C    0.5186472749    0.6435685084    1.1855858822
H675       H    0.4647528955    0.6611658329    1.3030703482
H676       H    0.4676134287    0.6156155003    1.3953318398
H677       H    0.5363719200    0.6064038156    1.2167922322
H678       H    0.5325881906    0.6518899922    1.1261580435
C659       C    0.4976775145    0.8280431165    0.7950960361
C660       C    0.5003105419    0.8269885116    0.7080752488
C661       C    0.5015145462    0.8537996096    0.6574741528
C662       C    0.5001718512    0.8828713906    0.6924082498
C663       C    0.4975921268    0.8839595638    0.7797849550
C664       C    0.4963457631    0.8569954106    0.8299070579
H665       H    0.5014303301    0.8044182700    0.6819256928
H666       H    0.5035767857    0.8525705740    0.5899265437
H667       H    0.4965017722    0.9062725151    0.8078654292
H668       H    0.4941946188    0.8574165544    0.8975192815
C649       C    0.5024504914    0.8860177728    1.3126076507
C650       C    0.5331403420    0.8893160966    1.2750418602
C651       C    0.5316561221    0.8624034040    1.2243375166
C652       C    0.4991575994    0.8310152728    1.2091909836
C653       C    0.4683381841    0.8277341928    1.2467893087
C654       C    0.4700800379    0.8547639004    1.2975240128
H655       H    0.5580639355    0.9137619943    1.2870835265
H656       H    0.5557710822    0.8654080245    1.1955910088
H657       H    0.4429531993    0.8035908570    1.2357580944
H658       H    0.4464874215    0.8525147759    1.3272848701
C639       C    0.8341454058    0.3251927125    0.1976640506
C640       C    0.8503641703    0.3607876144    0.1718193835
C641       C    0.8773569561    0.3880481728    0.2188257472
C642       C    0.8892134599    0.3806051838    0.2938725376
C643       C    0.8729721017    0.3448610658    0.3197372455
C644       C    0.8459515432    0.3177708699    0.2723936796
H645       H    0.8410119242    0.3661480800    0.1135665433
H646       H    0.8896887718    0.4155773352    0.1978042238
H647       H    0.8818175256    0.3386296605    0.3777294346
H648       H    0.8330523331    0.2900377017    0.2918328196
C629       C    0.8831140898    0.3768278034   -0.3274930838
C630       C    0.8555261226    0.3441099592   -0.3565228853
C631       C    0.8307985609    0.3187312155   -0.3017407326
C632       C    0.8327736872    0.3252534780   -0.2153158899
C633       C    0.8604345849    0.3581274974   -0.1861946837
C634       C    0.8850848041    0.3833337593   -0.2414269953
H635       H    0.8542538601    0.3394627165   -0.4234982124
H636       H    0.8095076770    0.2934360534   -0.3253686296
H637       H    0.8623677046    0.3636039766   -0.1194448190
H638       H    0.9066982319    0.4087968877   -0.2197350902
C619       C    0.6107840840    0.1021884245   -0.2938224870
C620       C    0.6170508916    0.0962400326   -0.2111698659
C621       C    0.6442093431    0.1231517482   -0.1637775044
C622       C    0.6661987876    0.1572502079   -0.1976053963
C623       C    0.6598638214    0.1632372729   -0.2805378653
C624       C    0.6326751188    0.1361461703   -0.3275252887
H625       H    0.5997870950    0.0697907758   -0.1857325204
H626       H    0.6487076812    0.1180761546   -0.0995981913
H627       H    0.6766591945    0.1894839892   -0.3077250677
H628       H    0.6275801234    0.1403576979   -0.3918345957
C609       C    0.6145703190    0.1082933767    0.3275232398
C610       C    0.6497869315    0.1152294086    0.3277182020
C611       C    0.6751560249    0.1398653992    0.2727720556
C612       C    0.6661401814    0.1586232965    0.2153207361
C613       C    0.6307987298    0.1517038048    0.2152320090
C614       C    0.6055844993    0.1269745075    0.2703240506
H615       H    0.6564141884    0.1006181175    0.3726171271
H616       H    0.7024217332    0.1449457903    0.2737822034
H617       H    0.6233583235    0.1659804007    0.1711097599
H618       H    0.5781274495    0.1212470585    0.2706887716
C599       C    0.4909612088    0.3246898095    0.8006784295
C600       C    0.5182110699    0.3601118933    0.8100052897
C601       C    0.5185170622    0.3875075716    0.7634978680
C602       C    0.4913343106    0.3803934214    0.7056522624
C603       C    0.4639443494    0.3448384265    0.6964014709
C604       C    0.4638827673    0.3175969323    0.7430847552
H605       H    0.5389970692    0.3652442941    0.8551133485
H606       H    0.5398990775    0.4149022847    0.7715503971
H607       H    0.4426969104    0.3388566420    0.6518404817
H608       H    0.4429568335    0.2899683828    0.7363022907
C589       C    0.4936581708    0.3769944768    1.3269568783
C590       C    0.4614653351    0.3472673904    1.3026094393
C591       C    0.4607165805    0.3220744776    1.2470636506
C592       C    0.4923949684    0.3257243597    1.2137420866
C593       C    0.5247176615    0.3555371296    1.2383058428
C594       C    0.5252118136    0.3806338581    1.2937934714
H595       H    0.4371885432    0.3447237220    1.3290350976
H596       H    0.4354543813    0.2991121738    1.2288177747
H597       H    0.5494973259    0.3587853158    1.2130551048
H598       H    0.5499994635    0.4038925793    1.3130366243
C579       C    0.4915728780    0.1024897269    0.7057111422
C580       C    0.4653421131    0.0950993871    0.7659591116
C581       C    0.4652985837    0.1222572491    0.8127399224
C582       C    0.4916669801    0.1580557074    0.8007295940
C583       C    0.5179638297    0.1654780902    0.7401371858
C584       C    0.5178335557    0.1381395306    0.6937255035
H585       H    0.4450620695    0.0673233022    0.7744224968
H586       H    0.4446979640    0.1160432758    0.8593068067
H587       H    0.5385949117    0.1930545769    0.7300716791
H588       H    0.5380912736    0.1434790448    0.6469332422
C569       C    0.4917084316    0.1577427388    1.2137615691
C570       C    0.5051373266    0.1678680695    1.2948491767
C571       C    0.5060062060    0.1435469231    1.3505927030
C572       C    0.4934248746    0.1079705166    1.3269736232
C573       C    0.4800017686    0.0978240075    1.2455142416
C574       C    0.4791820979    0.1223153620    1.1902157560
H575       H    0.5148707455    0.1954749790    1.3121951666
H576       H    0.5165481959    0.1518695596    1.4133958947
H577       H    0.4701307620    0.0703704355    1.2262163811
H578       H    0.4687326389    0.1147973319    1.1271728893
C559       C    0.6106588869    0.4997502520   -0.2938698084
C560       C    0.6448335425    0.5297491493   -0.2907359725
C561       C    0.6719590241    0.5298069745   -0.2435927693
C562       C    0.6658282001    0.4996040589   -0.1976559596
C563       C    0.6315343626    0.4694662742   -0.2009256920
C564       C    0.6045463479    0.4696647818   -0.2481390304
H565       H    0.6492297404    0.5528738593   -0.3267378270
H566       H    0.6983803513    0.5533535232   -0.2418744674
H567       H    0.6263224824    0.4458569518   -0.1656821235
H568       H    0.5778664813    0.4466050965   -0.2509390230
C549       C    0.6146785695    0.4979041071    0.3274946126
C550       C    0.6166689178    0.5091339687    0.2446553505
C551       C    0.6420336251    0.5100179346    0.1894535563
C552       C    0.6664623257    0.4995664773    0.2153255788
C553       C    0.6644204585    0.4882325671    0.2984531625
C554       C    0.6389996872    0.4874881245    0.3532758515
H555       H    0.5975562092    0.5170388477    0.2254263980
H556       H    0.6432017692    0.5188083794    0.1252479617
H557       H    0.6831504560    0.4800679532    0.3195358244
H558       H    0.6372200126    0.4789339402    0.4178147804
C539       C    0.8337726778    0.4996092600    0.1976236216
C540       C    0.8553353239    0.5281798839    0.2503109999
C541       C    0.8824705120    0.5283574376    0.2976632113
C542       C    0.8890857131    0.4997632305    0.2938642120
C543       C    0.8674769366    0.4711096887    0.2408532815
C544       C    0.8403579612    0.4711308209    0.1938158611
H545       H    0.8499962690    0.5501524986    0.2524563444
H546       H    0.8989950604    0.5507914178    0.3382838185
H547       H    0.8722228850    0.4487388584    0.2372026152
H548       H    0.8233472570    0.4490831019    0.1528519987
C529       C    0.8330994882    0.4995711464   -0.2152968002
C530       C    0.8460036052    0.5225426277   -0.2841170215
C531       C    0.8705998500    0.5218425666   -0.3392549562
C532       C    0.8832174308    0.4979147336   -0.3274869336
C533       C    0.8702122784    0.4748101400   -0.2584755938
C534       C    0.8456557775    0.4757341062   -0.2035677530
H535       H    0.8359462506    0.5408287646   -0.2926009743
H536       H    0.8803465666    0.5398788870   -0.3924641531
H537       H    0.8797211296    0.4561264686   -0.2484071989
H538       H    0.8354951550    0.4581314814   -0.1497503003
loop_
_geom_bond_atom_site_label_1
_geom_bond_atom_site_label_2
_geom_bond_distance
_geom_bond_site_symmetry_2
_ccdc_geom_bond_type
