data_fcu_v1-12c_Zr_1_Ch_1-diedgenobond
_audit_creation_date              2024-12-07
_audit_creation_method            'tobacco_3.0'
_symmetry_space_group_name_H-M    'P1'
_symmetry_Int_Tables_number       1
_symmetry_cell_setting            triclinic
loop_
_symmetry_equiv_pos_as_xyz
  x,y,z
_cell_length_a                    39.35326538134091
_cell_length_b                    39.35326538134091
_cell_length_c                    39.35326538134091
_cell_angle_alpha                 90.0
_cell_angle_beta                  90.0
_cell_angle_gamma                 90.0
loop_
_atom_site_label
_atom_site_type_symbol
_atom_site_fract_x
_atom_site_fract_y
_atom_site_fract_z
O1         O    0.0000000000    0.0896850608    0.0501305287
O2         O   -0.0000000000   -0.0896850608    0.0501305287
O3         O   -0.0501305287   -0.0000000000    0.0896850608
O4         O    0.0501305287   -0.0000000000    0.0896850608
O5         O    0.0896850608   -0.0000000000    0.0501305287
O6         O   -0.0896850608   -0.0000000000    0.0501305287
O7         O   -0.0000000000   -0.0501305287    0.0896850608
O8         O    0.0000000000    0.0501305287    0.0896850608
Zr9       Zr   -0.0000000000   -0.0000000000    0.0630697345
O10        O    0.0295070813   -0.0295070813    0.0295070813
O11        O   -0.0295070813    0.0295070813    0.0295070813
C12        C    0.0000000000    0.0807912627    0.0807912627
C13        C   -0.0000000000   -0.0807912627    0.0807912627
C14        C   -0.0807912627   -0.0000000000    0.0807912627
C15        C    0.0807912627   -0.0000000000    0.0807912627
H16        H   -0.0473404172   -0.0473404172    0.0473404172
O17        O   -0.0295070813   -0.0295070813    0.0295070813
H18        H    0.0473404172    0.0473404172    0.0473404172
O19        O    0.0295070813    0.0295070813    0.0295070813
O20        O   -0.0000000000   -0.0896850608   -0.0501305287
O21        O    0.0000000000    0.0896850608   -0.0501305287
O22        O   -0.0896850608   -0.0501305287   -0.0000000000
O23        O    0.0896850608   -0.0501305287   -0.0000000000
O24        O    0.0896850608    0.0501305287    0.0000000000
O25        O   -0.0896850608    0.0501305287    0.0000000000
O26        O   -0.0501305287    0.0000000000   -0.0896850608
O27        O    0.0501305287    0.0000000000   -0.0896850608
O28        O   -0.0896850608    0.0000000000   -0.0501305287
O29        O    0.0896850608    0.0000000000   -0.0501305287
O30        O   -0.0501305287   -0.0896850608   -0.0000000000
O31        O   -0.0501305287    0.0896850608    0.0000000000
O32        O    0.0501305287    0.0896850608    0.0000000000
O33        O    0.0501305287   -0.0896850608   -0.0000000000
O34        O   -0.0000000000   -0.0501305287   -0.0896850608
O35        O    0.0000000000    0.0501305287   -0.0896850608
Zr36      Zr   -0.0000000000   -0.0630697345   -0.0000000000
Zr37      Zr    0.0000000000    0.0630697345    0.0000000000
Zr38      Zr   -0.0630697345   -0.0000000000    0.0000000000
Zr39      Zr    0.0630697345    0.0000000000    0.0000000000
Zr40      Zr    0.0000000000    0.0000000000   -0.0630697345
O41        O    0.0295070813    0.0295070813   -0.0295070813
O42        O   -0.0295070813   -0.0295070813   -0.0295070813
C43        C   -0.0000000000   -0.0807912627   -0.0807912627
C44        C    0.0000000000    0.0807912627   -0.0807912627
C45        C   -0.0807912627   -0.0807912627   -0.0000000000
C46        C    0.0807912627   -0.0807912627   -0.0000000000
C47        C    0.0807912627    0.0807912627    0.0000000000
C48        C   -0.0807912627    0.0807912627    0.0000000000
C49        C   -0.0807912627    0.0000000000   -0.0807912627
C50        C    0.0807912627    0.0000000000   -0.0807912627
H51        H   -0.0473404172    0.0473404172   -0.0473404172
O52        O   -0.0295070813    0.0295070813   -0.0295070813
H53        H    0.0473404172   -0.0473404172   -0.0473404172
O54        O    0.0295070813   -0.0295070813   -0.0295070813
O55        O    0.0000000000    0.4103149392    0.4498694713
O56        O    0.0000000000    0.5896850608    0.4498694713
O57        O   -0.0501305287    0.5000000000    0.4103149392
O58        O    0.0501305287    0.5000000000    0.4103149392
O59        O    0.0896850608    0.5000000000    0.4498694713
O60        O   -0.0896850608    0.5000000000    0.4498694713
O61        O    0.0000000000    0.5501305287    0.4103149392
O62        O    0.0000000000    0.4498694713    0.4103149392
Zr63      Zr    0.0000000000    0.5000000000    0.4369302655
O64        O    0.0295070813    0.5295070813    0.4704929187
O65        O   -0.0295070813    0.4704929187    0.4704929187
C66        C    0.0000000000    0.4192087373    0.4192087373
C67        C    0.0000000000    0.5807912627    0.4192087373
C68        C   -0.0807912627    0.5000000000    0.4192087373
C69        C    0.0807912627    0.5000000000    0.4192087373
H70        H   -0.0473404172    0.5473404172    0.4526595828
O71        O   -0.0295070813    0.5295070813    0.4704929187
H72        H    0.0473404172    0.4526595828    0.4526595828
O73        O    0.0295070813    0.4704929187    0.4704929187
O74        O    0.0000000000    0.5896850608    0.5501305287
O75        O    0.0000000000    0.4103149392    0.5501305287
O76        O   -0.0896850608    0.5501305287    0.5000000000
O77        O    0.0896850608    0.5501305287    0.5000000000
O78        O    0.0896850608    0.4498694713    0.5000000000
O79        O   -0.0896850608    0.4498694713    0.5000000000
O80        O   -0.0501305287    0.5000000000    0.5896850608
O81        O    0.0501305287    0.5000000000    0.5896850608
O82        O   -0.0896850608    0.5000000000    0.5501305287
O83        O    0.0896850608    0.5000000000    0.5501305287
O84        O   -0.0501305287    0.5896850608    0.5000000000
O85        O   -0.0501305287    0.4103149392    0.5000000000
O86        O    0.0501305287    0.4103149392    0.5000000000
O87        O    0.0501305287    0.5896850608    0.5000000000
O88        O    0.0000000000    0.5501305287    0.5896850608
O89        O    0.0000000000    0.4498694713    0.5896850608
Zr90      Zr    0.0000000000    0.5630697345    0.5000000000
Zr91      Zr    0.0000000000    0.4369302655    0.5000000000
Zr92      Zr   -0.0630697345    0.5000000000    0.5000000000
Zr93      Zr    0.0630697345    0.5000000000    0.5000000000
Zr94      Zr    0.0000000000    0.5000000000    0.5630697345
O95        O    0.0295070813    0.4704929187    0.5295070813
O96        O   -0.0295070813    0.5295070813    0.5295070813
C97        C    0.0000000000    0.5807912627    0.5807912627
C98        C    0.0000000000    0.4192087373    0.5807912627
C99        C   -0.0807912627    0.5807912627    0.5000000000
C100       C    0.0807912627    0.5807912627    0.5000000000
C101       C    0.0807912627    0.4192087373    0.5000000000
C102       C   -0.0807912627    0.4192087373    0.5000000000
C103       C   -0.0807912627    0.5000000000    0.5807912627
C104       C    0.0807912627    0.5000000000    0.5807912627
H105       H   -0.0473404172    0.4526595828    0.5473404172
O106       O   -0.0295070813    0.4704929187    0.5295070813
H107       H    0.0473404172    0.5473404172    0.5473404172
O108       O    0.0295070813    0.5295070813    0.5295070813
O109       O    0.5501305287    1.0000000000    0.4103149392
O110       O    0.5501305287    1.0000000000    0.5896850608
O111       O    0.5896850608    1.0501305287    0.5000000000
O112       O    0.5896850608    0.9498694713    0.5000000000
O113       O    0.5501305287    0.9103149392    0.5000000000
O114       O    0.5501305287    1.0896850608    0.5000000000
O115       O    0.5896850608    1.0000000000    0.5501305287
O116       O    0.5896850608    1.0000000000    0.4498694713
Zr117     Zr    0.5630697345    1.0000000000    0.5000000000
O118       O    0.5295070813    0.9704929187    0.5295070813
O119       O    0.5295070813    1.0295070813    0.4704929187
C120       C    0.5807912627    1.0000000000    0.4192087373
C121       C    0.5807912627    1.0000000000    0.5807912627
C122       C    0.5807912627    1.0807912627    0.5000000000
C123       C    0.5807912627    0.9192087373    0.5000000000
H124       H    0.5473404172    1.0473404172    0.5473404172
O125       O    0.5295070813    1.0295070813    0.5295070813
H126       H    0.5473404172    0.9526595828    0.4526595828
O127       O    0.5295070813    0.9704929187    0.4704929187
O128       O    0.4498694713    1.0000000000    0.5896850608
O129       O    0.4498694713    1.0000000000    0.4103149392
O130       O    0.5000000000    1.0896850608    0.5501305287
O131       O    0.5000000000    0.9103149392    0.5501305287
O132       O    0.5000000000    0.9103149392    0.4498694713
O133       O    0.5000000000    1.0896850608    0.4498694713
O134       O    0.4103149392    1.0501305287    0.5000000000
O135       O    0.4103149392    0.9498694713    0.5000000000
O136       O    0.4498694713    1.0896850608    0.5000000000
O137       O    0.4498694713    0.9103149392    0.5000000000
O138       O    0.5000000000    1.0501305287    0.5896850608
O139       O    0.5000000000    1.0501305287    0.4103149392
O140       O    0.5000000000    0.9498694713    0.4103149392
O141       O    0.5000000000    0.9498694713    0.5896850608
O142       O    0.4103149392    1.0000000000    0.5501305287
O143       O    0.4103149392    1.0000000000    0.4498694713
Zr144     Zr    0.5000000000    1.0000000000    0.5630697345
Zr145     Zr    0.5000000000    1.0000000000    0.4369302655
Zr146     Zr    0.5000000000    1.0630697345    0.5000000000
Zr147     Zr    0.5000000000    0.9369302655    0.5000000000
Zr148     Zr    0.4369302655    1.0000000000    0.5000000000
O149       O    0.4704929187    0.9704929187    0.4704929187
O150       O    0.4704929187    1.0295070813    0.5295070813
C151       C    0.4192087373    1.0000000000    0.5807912627
C152       C    0.4192087373    1.0000000000    0.4192087373
C153       C    0.5000000000    1.0807912627    0.5807912627
C154       C    0.5000000000    0.9192087373    0.5807912627
C155       C    0.5000000000    0.9192087373    0.4192087373
C156       C    0.5000000000    1.0807912627    0.4192087373
C157       C    0.4192087373    1.0807912627    0.5000000000
C158       C    0.4192087373    0.9192087373    0.5000000000
H159       H    0.4526595828    1.0473404172    0.4526595828
O160       O    0.4704929187    1.0295070813    0.4704929187
H161       H    0.4526595828    0.9526595828    0.5473404172
O162       O    0.4704929187    0.9704929187    0.5295070813
O163       O    0.4498694713    0.4103149392    1.0000000000
O164       O    0.4498694713    0.5896850608    1.0000000000
O165       O    0.4103149392    0.5000000000    1.0501305287
O166       O    0.4103149392    0.5000000000    0.9498694713
O167       O    0.4498694713    0.5000000000    0.9103149392
O168       O    0.4498694713    0.5000000000    1.0896850608
O169       O    0.4103149392    0.5501305287    1.0000000000
O170       O    0.4103149392    0.4498694713    1.0000000000
Zr171     Zr    0.4369302655    0.5000000000    1.0000000000
O172       O    0.4704929187    0.5295070813    0.9704929187
O173       O    0.4704929187    0.4704929187    1.0295070813
C174       C    0.4192087373    0.4192087373    1.0000000000
C175       C    0.4192087373    0.5807912627    1.0000000000
C176       C    0.4192087373    0.5000000000    1.0807912627
C177       C    0.4192087373    0.5000000000    0.9192087373
H178       H    0.4526595828    0.5473404172    1.0473404172
O179       O    0.4704929187    0.5295070813    1.0295070813
H180       H    0.4526595828    0.4526595828    0.9526595828
O181       O    0.4704929187    0.4704929187    0.9704929187
O182       O    0.5501305287    0.5896850608    1.0000000000
O183       O    0.5501305287    0.4103149392    1.0000000000
O184       O    0.5000000000    0.5501305287    1.0896850608
O185       O    0.5000000000    0.5501305287    0.9103149392
O186       O    0.5000000000    0.4498694713    0.9103149392
O187       O    0.5000000000    0.4498694713    1.0896850608
O188       O    0.5896850608    0.5000000000    1.0501305287
O189       O    0.5896850608    0.5000000000    0.9498694713
O190       O    0.5501305287    0.5000000000    1.0896850608
O191       O    0.5501305287    0.5000000000    0.9103149392
O192       O    0.5000000000    0.5896850608    1.0501305287
O193       O    0.5000000000    0.4103149392    1.0501305287
O194       O    0.5000000000    0.4103149392    0.9498694713
O195       O    0.5000000000    0.5896850608    0.9498694713
O196       O    0.5896850608    0.5501305287    1.0000000000
O197       O    0.5896850608    0.4498694713    1.0000000000
Zr198     Zr    0.5000000000    0.5630697345    1.0000000000
Zr199     Zr    0.5000000000    0.4369302655    1.0000000000
Zr200     Zr    0.5000000000    0.5000000000    1.0630697345
Zr201     Zr    0.5000000000    0.5000000000    0.9369302655
Zr202     Zr    0.5630697345    0.5000000000    1.0000000000
O203       O    0.5295070813    0.4704929187    0.9704929187
O204       O    0.5295070813    0.5295070813    1.0295070813
C205       C    0.5807912627    0.5807912627    1.0000000000
C206       C    0.5807912627    0.4192087373    1.0000000000
C207       C    0.5000000000    0.5807912627    1.0807912627
C208       C    0.5000000000    0.5807912627    0.9192087373
C209       C    0.5000000000    0.4192087373    0.9192087373
C210       C    0.5000000000    0.4192087373    1.0807912627
C211       C    0.5807912627    0.5000000000    1.0807912627
C212       C    0.5807912627    0.5000000000    0.9192087373
H213       H    0.5473404172    0.4526595828    1.0473404172
O214       O    0.5295070813    0.4704929187    1.0295070813
H215       H    0.5473404172    0.5473404172    0.9526595828
O216       O    0.5295070813    0.5295070813    0.9704929187
C1275      C    0.5505045468    1.2339850357    0.2085984250
C1276      C    0.5510811694    1.2092744482    0.2344179410
C1277      C    0.5262266957    1.2085026652    0.2602881669
C1278      C    0.5007342268    1.2335725925    0.2589979597
C1279      C    0.4757960235    1.2327646899    0.2846506409
C1280      C    0.4503376440    1.2580088575    0.2833042253
C1281      C    0.4499394533    1.2829034172    0.2576709675
C1282      C    0.4749343326    1.2838516918    0.2319521217
C1283      C    0.5002532929    1.2585868242    0.2330734201
C1284      C    0.5251217434    1.2593168151    0.2073615032
C1285      C    0.5243497210    1.2858392747    0.1797189184
O1286      O    0.5452663980    1.2836450238    0.1563878168
N1287      N    0.5001611059    1.3105555902    0.1810485715
C1288      C    0.4748948479    1.3108811143    0.2047604723
O1289      O    0.4520492926    1.3323471007    0.2053081326
C1290      C    0.5009271618    1.3373958850    0.1563459021
C1291      C    0.4950602050    1.3308635253    0.1214462232
C1292      C    0.4941669147    1.3577109439    0.0978657908
C1293      C    0.5000000000    1.1084622687    0.3915377313
C1294      C    0.5062722569    1.3980254319    0.1431699443
C1295      C    0.5067316605    1.3712775273    0.1669010582
C1296      C    0.4762737182    1.2060297521    0.3121303947
O1297      O    0.4534526421    1.2065555595    0.3336258946
N1298      N    0.5016609608    1.1824497260    0.3118596754
C1299      C    0.5271140139    1.1824939380    0.2884137412
O1300      O    0.5514899343    1.1627214964    0.2896290424
C1301      C    0.5018362078    1.1570599986    0.3380619560
C1302      C    0.4753468773    1.1328168130    0.3398366274
C1303      C    0.4744987605    1.1087793361    0.3663136665
C1304      C    0.5265029005    1.1326467369    0.3897730772
C1305      C    0.5276793315    1.1563987949    0.3630972387
H1306      H    0.5110740526    1.3771314671    0.1933782929
H1307      H    0.4551324099    1.1328012150    0.3212496511
C1308      C    0.5000000000    1.3915377313    0.1084622687
H1309      H    0.5105093488    1.4237961196    0.1517665620
H1310      H    0.4538802005    1.0906274999    0.3674279447
H1311      H    0.5462318273    1.1336935007    0.4088017454
O1312      O    0.5545089963    1.1782411239    0.3616956296
H1313      H    0.5660187264    1.1762936070    0.3405676878
H1314      H    0.4306109853    1.2583927403    0.3024626256
H1315      H    0.4299552161    1.3017959479    0.2578494321
H1316      H    0.5701277496    1.2334927585    0.1893431686
H1317      H    0.5711814792    1.1905088501    0.2343537766
O1318      O    0.4908040846    1.2985495773    0.1097634799
H1319      H    0.5094007908    1.2846077661    0.1162933345
H1320      H    0.4887177782    1.3516632228    0.0716694394
C1229      C    0.5372147244    0.8002039907    0.2251826200
C1230      C    0.5379867429    0.7745198075    0.2003366996
C1231      C    0.5190513016    0.7442553701    0.2039591282
C1232      C    0.4992436189    0.7409998172    0.2335748157
C1233      C    0.4801778498    0.7109314443    0.2371826047
C1234      C    0.4604261313    0.7077411364    0.2669634958
C1235      C    0.4598983362    0.7332814738    0.2919509759
C1236      C    0.4790331426    0.7634286263    0.2884709438
C1237      C    0.4986025862    0.7668117701    0.2587016340
C1238      C    0.5175743752    0.7969229486    0.2550323633
C1239      C    0.5166124692    0.8243915379    0.2817288185
O1240      O    0.5316816040    0.8513337282    0.2759234788
N1241      N    0.4985030058    0.8188173754    0.3106896433
C1242      C    0.4789633015    0.7906093051    0.3155113369
O1243      O    0.4613505783    0.7860017549    0.3410372132
C1244      C    0.4996593568    0.8437129536    0.3373370293
C1245      C    0.4858729948    0.8766404697    0.3327768324
C1246      C    0.4856576988    0.9001096582    0.3597354949
C1247      C    0.5000000000    0.6084622687    0.1084622687
C1248      C    0.5141291002    0.8588772823    0.3959782053
C1249      C    0.5139768625    0.8351769918    0.3691994773
C1250      C    0.4807832134    0.6835603727    0.2103389847
O1251      O    0.4631955100    0.6580099500    0.2149197148
N1252      N    0.5004758514    0.6883547486    0.1822353021
C1253      C    0.5203200393    0.7163461508    0.1777340461
O1254      O    0.5400827128    0.7195600502    0.1535324038
C1255      C    0.5008040352    0.6622029860    0.1567950566
C1256      C    0.4709402929    0.6547734206    0.1382067650
C1257      C    0.4706056052    0.6281776900    0.1142879796
C1258      C    0.5298671956    0.6158835250    0.1269901348
C1259      C    0.5304219729    0.6427330860    0.1505684702
H1260      H    0.5245084139    0.8101923211    0.3735608531
H1261      H    0.4478642191    0.6690162963    0.1425352675
C1262      C    0.5000000000    0.8915377313    0.3915377313
H1263      H    0.5249600833    0.8517927094    0.4202368483
H1264      H    0.4474492842    0.6226707089    0.1005288464
H1265      H    0.5527666595    0.6011325122    0.1237592431
O1266      O    0.5602136778    0.6498165119    0.1667289824
H1267      H    0.5667292589    0.6727532499    0.1629726693
H1268      H    0.4453229612    0.6850876474    0.2708424673
H1269      H    0.4444550397    0.7295479423    0.3143985736
H1270      H    0.5521781439    0.8229299306    0.2212196593
H1271      H    0.5535889875    0.7781666365    0.1779884370
O1272      O    0.4731293158    0.8866173245    0.3021687729
H1273      H    0.4895335842    0.8835997326    0.2847146990
H1274      H    0.4740802369    0.9245974318    0.3553963516
C1183      C    0.5232912774    0.6945483321    0.7199349428
C1184      C    0.5223687926    0.7195938654    0.6944503726
C1185      C    0.5130333099    0.7534764790    0.7016909774
C1186      C    0.5047803027    0.7610869312    0.7356615640
C1187      C    0.4956411664    0.7948966021    0.7430106511
C1188      C    0.4872982810    0.8023868418    0.7770914740
C1189      C    0.4879170702    0.7772786463    0.8025110960
C1190      C    0.4969889667    0.7433388337    0.7952384037
C1191      C    0.5055398724    0.7358028582    0.7613162623
C1192      C    0.5147926221    0.7020286227    0.7539839346
C1193      C    0.5157821527    0.6752955200    0.7814158763
O1194      O    0.5266043348    0.6467526745    0.7740098815
N1195      N    0.5056057187    0.6838596015    0.8133666201
C1196      C    0.4971102543    0.7162301902    0.8223508322
O1197      O    0.4892406786    0.7245098838    0.8515488519
C1198      C    0.5039326965    0.6578976467    0.8389476295
C1199      C    0.5336247248    0.6413569174    0.8507742195
C1200      C    0.5316963697    0.6172420855    0.8770872387
C1201      C    0.5000000000    0.8915377313    0.6084622687
C1202      C    0.4703439441    0.6246203123    0.8794757999
C1203      C    0.4722359175    0.6490910557    0.8534675248
C1204      C    0.4949940456    0.8217956185    0.7156949759
O1205      O    0.4871118557    0.8510040005    0.7239336654
N1206      N    0.5033269342    0.8127198102    0.6833098609
C1207      C    0.5113373548    0.7802683206    0.6743485174
O1208      O    0.5164128604    0.7715189013    0.6446113553
C1209      C    0.5027262944    0.8385215039    0.6575195465
C1210      C    0.5259260512    0.8659504355    0.6589306211
C1211      C    0.5245412277    0.8921503751    0.6346160447
C1212      C    0.4768289113    0.8641266121    0.6070002719
C1213      C    0.4784398858    0.8376751265    0.6309766827
H1214      H    0.4491377907    0.6614008697    0.8451540439
H1215      H    0.5446111465    0.8674471346    0.6789986984
C1216      C    0.5000000000    0.6084622687    0.8915377313
H1217      H    0.4459065059    0.6184123944    0.8904419521
H1218      H    0.5422953076    0.9130762808    0.6362758361
H1219      H    0.4572996747    0.8628864609    0.5877782162
O1220      O    0.4565022515    0.8110951725    0.6276406668
H1221      H    0.4685390485    0.7902393531    0.6259652723
H1222      H    0.4801434334    0.8280360136    0.7839661283
H1223      H    0.4811580848    0.7842852511    0.8282317669
H1224      H    0.5306158708    0.6689433570    0.7130929470
H1225      H    0.5289299552    0.7125394981    0.6686945716
O1226      O    0.5645535588    0.6478400134    0.8366261108
H1227      H    0.5638824688    0.6444219884    0.8127364201
H1228      H    0.5550728651    0.6059282828    0.8859220663
C1137      C    0.5621125372    1.2757522385    0.7496343722
C1138      C    0.5623495427    1.2498196602    0.7250368469
C1139      C    0.5326274327    1.2315334287    0.7166810697
C1140      C    0.5026676470    1.2405293139    0.7340453189
C1141      C    0.4729359115    1.2224735997    0.7256404493
C1142      C    0.4429760963    1.2315209603    0.7431836718
C1143      C    0.4428051843    1.2572333010    0.7679991487
C1144      C    0.4725695239    1.2753427734    0.7765567967
C1145      C    0.5024660658    1.2665486962    0.7589647079
C1146      C    0.5321699347    1.2846772114    0.7672781005
C1147      C    0.5317550570    1.3124847285    0.7936356278
O1148      O    0.5579464520    1.3292696646    0.7979875424
N1149      N    0.5023957415    1.3185961275    0.8109108912
C1150      C    0.4725763855    1.3025389561    0.8035816859
O1151      O    0.4455392457    1.3089230246    0.8181159435
C1152      C    0.5025328266    1.3431732958    0.8378766870
C1153      C    0.5081888570    1.3781022852    0.8313150169
C1154      C    0.5064877961    1.4020432302    0.8578019229
C1155      C    0.5000000000    1.1084622687    0.6084622687
C1156      C    0.4947824562    1.3566834921    0.8981719954
C1157      C    0.4960149486    1.3327172714    0.8716591977
C1158      C    0.4731787779    1.1948937163    0.6990056411
O1159      O    0.4461622471    1.1803236797    0.6926059852
N1160      N    0.5030601682    1.1874842738    0.6831057769
C1161      C    0.5328823220    1.2032491325    0.6908310643
O1162      O    0.5604111006    1.1948211237    0.6782713303
C1163      C    0.5030049538    1.1612653133    0.6577327293
C1164      C    0.4844978651    1.1657433709    0.6272368147
C1165      C    0.4830600262    1.1395839896    0.6028816800
C1166      C    0.5185326810    1.1039687518    0.6389049079
C1167      C    0.5204039886    1.1302210747    0.6630804814
H1168      H    0.4913830050    1.3062802729    0.8774729013
H1169      H    0.4707645150    1.1890477559    0.6225038079
C1170      C    0.5000000000    1.3915377313    0.8915377313
H1171      H    0.4895082013    1.3482309993    0.9237985584
H1172      H    0.4685338571    1.1433534437    0.5798461116
H1173      H    0.5314224818    1.0804073660    0.6444843893
O1174      O    0.5397687129    1.1252034842    0.6913420101
H1175      H    0.5565971780    1.1423935337    0.6933323855
H1176      H    0.4194872115    1.2183678175    0.7375622972
H1177      H    0.4192039870    1.2631114941    0.7808350217
H1178      H    0.5855605823    1.2890222889    0.7551273011
H1179      H    0.5859936296    1.2438050775    0.7123499960
O1180      O    0.5160221965    1.3892879361    0.7994981613
H1181      H    0.5352192441    1.3775062391    0.7908081925
H1182      H    0.5100719943    1.4284987345    0.8514950489
C1091      C   -0.2280691570    0.2026825463    0.5424426135
C1092      C   -0.2023761121    0.2275196049    0.5416803808
C1093      C   -0.2061529480    0.2579384496    0.5230245909
C1094      C   -0.2369061016    0.2623314688    0.5052770055
C1095      C   -0.2408375134    0.2927234644    0.4867973586
C1096      C   -0.2716796168    0.2969749846    0.4689676321
C1097      C   -0.2972385775    0.2720061279    0.4694748617
C1098      C   -0.2933690111    0.2414694411    0.4879041714
C1099      C   -0.2627321858    0.2372187817    0.5059024332
C1100      C   -0.2588432650    0.2068879531    0.5244764075
C1101      C   -0.2864920614    0.1803717051    0.5252393137
O1102      O   -0.2827530852    0.1554958782    0.5440508982
N1103      N   -0.3147951732    0.1852881545    0.5059386475
C1104      C   -0.3205104525    0.2143898105    0.4880173419
O1105      O   -0.3467050465    0.2196660784    0.4716157521
C1106      C   -0.3399857514    0.1589357685    0.5044565327
C1107      C   -0.3590825180    0.1496652159    0.5335159693
C1108      C   -0.3848671516    0.1250219985    0.5311743563
C1109      C   -0.1084622687    0.3915377313    0.5000000000
C1110      C   -0.3722326264    0.1173771388    0.4711228078
C1111      C   -0.3467243687    0.1423478995    0.4732715548
C1112      C   -0.2133788230    0.3194794656    0.4862887510
O1113      O   -0.2186119682    0.3456823033    0.4698826550
N1114      N   -0.1842267540    0.3136367034    0.5040826266
C1115      C   -0.1784195917    0.2843393949    0.5215616505
O1116      O   -0.1510448804    0.2779524264    0.5355774884
C1117      C   -0.1582918669    0.3392938243    0.5035149508
C1118      C   -0.1644170217    0.3714368361    0.5184104334
C1119      C   -0.1397138765    0.3972482069    0.5166551694
C1120      C   -0.1022940597    0.3594203999    0.4851394325
C1121      C   -0.1267308697    0.3334293135    0.4872490175
H1122      H   -0.3327454672    0.1489922930    0.4505865092
H1123      H   -0.1883312376    0.3767796738    0.5308066015
C1124      C   -0.3915377313    0.1084622687    0.5000000000
H1125      H   -0.3771891024    0.1051595448    0.4469950879
H1126      H   -0.1449659000    0.4217663448    0.5279304944
H1127      H   -0.0789903943    0.3540986390    0.4716845256
O1128      O   -0.1190158259    0.3024703316    0.4737990249
H1129      H   -0.1209004114    0.2851744922    0.4905309975
H1130      H   -0.2758696834    0.3199395687    0.4544278951
H1131      H   -0.3203636755    0.2764171597    0.4552586052
H1132      H   -0.2239502270    0.1798006371    0.5571235525
H1133      H   -0.1791708431    0.2230157696    0.5557304767
O1134      O   -0.3525892726    0.1638031753    0.5644473152
H1135      H   -0.3293498896    0.1610354579    0.5703736458
H1136      H   -0.3993891569    0.1193953734    0.5537568561
C1045      C   -0.2904865252    0.7349000856    0.4484819196
C1046      C   -0.2646568456    0.7101996615    0.4479253715
C1047      C   -0.2392364293    0.7089780690    0.4732219966
C1048      C   -0.2409876766    0.7335869562    0.4991327602
C1049      C   -0.2157862659    0.7323277831    0.5245085384
C1050      C   -0.2175931291    0.7571115031    0.5503873404
C1051      C   -0.2432334098    0.7819990399    0.5507721542
C1052      C   -0.2684999805    0.7833995896    0.5253410491
C1053      C   -0.2669206954    0.7585927087    0.4995972127
C1054      C   -0.2921825709    0.7597727410    0.4742887049
C1055      C   -0.3198388219    0.7862815344    0.4750403892
O1056      O   -0.3427906708    0.7844665362    0.4536726371
N1057      N   -0.3189471884    0.8105598302    0.4996883641
C1058      C   -0.2956923120    0.8104283300    0.5253776115
O1059      O   -0.2955579345    0.8314810336    0.5486106378
C1060      C   -0.3436364622    0.8374135206    0.4989608936
C1061      C   -0.3786347019    0.8307826003    0.5040828673
C1062      C   -0.4022316812    0.8576134719    0.5050344645
C1063      C   -0.1084622687    0.6084622687    0.5000000000
C1064      C   -0.3567241878    0.8981312998    0.4944686120
C1065      C   -0.3329843491    0.8713921200    0.4939552492
C1066      C   -0.1882980643    0.7056012931    0.5240443559
O1067      O   -0.1672154094    0.7057142555    0.5472530483
N1068      N   -0.1881096194    0.6824804312    0.4982375111
C1069      C   -0.2110952813    0.6829849156    0.4723729303
O1070      O   -0.2094398057    0.6636526483    0.4476720246
C1071      C   -0.1619043264    0.6570937162    0.4980768939
C1072      C   -0.1606011344    0.6323790512    0.5241547227
C1073      C   -0.1341396990    0.6083259706    0.5250463208
C1074      C   -0.1097551922    0.6331184676    0.4739077321
C1075      C   -0.1364094607    0.6568920955    0.4726792406
H1076      H   -0.3064344331    0.8773187410    0.4901941231
H1077      H   -0.1795476705    0.6320038933    0.5440290440
C1078      C   -0.3915377313    0.8915377313    0.5000000000
H1079      H   -0.3480571051    0.9239724526    0.4908492708
H1080      H   -0.1333924799    0.5898070754    0.5453526738
H1081      H   -0.0903759094    0.6345158459    0.4545452112
O1082      O   -0.1373331602    0.6792123341    0.4462248178
H1083      H   -0.1582509596    0.6774749596    0.4343049257
H1084      H   -0.1987916758    0.7571384389    0.5704581490
H1085      H   -0.2434164360    0.8005300798    0.5710920058
H1086      H   -0.3093866571    0.7347629328    0.4285108524
H1087      H   -0.2643574762    0.6917975973    0.4274938113
O1088      O   -0.3903867025    0.7983993949    0.5075485250
H1089      H   -0.3835221183    0.7847923134    0.4888248664
H1090      H   -0.4285205776    0.8514732059    0.5099035412
C999       C    0.2095134748    0.2349000856    0.4484819196
C1000      C    0.2353431544    0.2101996615    0.4479253715
C1001      C    0.2607635707    0.2089780690    0.4732219966
C1002      C    0.2590123234    0.2335869562    0.4991327602
C1003      C    0.2842137341    0.2323277831    0.5245085384
C1004      C    0.2824068709    0.2571115031    0.5503873404
C1005      C    0.2567665902    0.2819990399    0.5507721542
C1006      C    0.2315000195    0.2833995896    0.5253410491
C1007      C    0.2330793046    0.2585927087    0.4995972127
C1008      C    0.2078174291    0.2597727410    0.4742887049
C1009      C    0.1801611781    0.2862815344    0.4750403892
O1010      O    0.1572093292    0.2844665362    0.4536726371
N1011      N    0.1810528116    0.3105598302    0.4996883641
C1012      C    0.2043076880    0.3104283300    0.5253776115
O1013      O    0.2044420655    0.3314810336    0.5486106378
C1014      C    0.1563635378    0.3374135206    0.4989608936
C1015      C    0.1213652981    0.3307826003    0.5040828673
C1016      C    0.0977683188    0.3576134719    0.5050344645
C1017      C    0.3915377313    0.1084622687    0.5000000000
C1018      C    0.1432758122    0.3981312998    0.4944686120
C1019      C    0.1670156509    0.3713921200    0.4939552492
C1020      C    0.3117019357    0.2056012931    0.5240443559
O1021      O    0.3327845906    0.2057142555    0.5472530483
N1022      N    0.3118903806    0.1824804312    0.4982375111
C1023      C    0.2889047187    0.1829849156    0.4723729303
O1024      O    0.2905601943    0.1636526483    0.4476720246
C1025      C    0.3380956736    0.1570937162    0.4980768939
C1026      C    0.3393988656    0.1323790512    0.5241547227
C1027      C    0.3658603010    0.1083259706    0.5250463208
C1028      C    0.3902448078    0.1331184676    0.4739077321
C1029      C    0.3635905393    0.1568920955    0.4726792406
H1030      H    0.1935655669    0.3773187410    0.4901941231
H1031      H    0.3204523295    0.1320038933    0.5440290440
C1032      C    0.1084622687    0.3915377313    0.5000000000
H1033      H    0.1519428949    0.4239724526    0.4908492708
H1034      H    0.3666075201    0.0898070754    0.5453526738
H1035      H    0.4096240906    0.1345158459    0.4545452112
O1036      O    0.3626668398    0.1792123341    0.4462248178
H1037      H    0.3417490404    0.1774749596    0.4343049257
H1038      H    0.3012083242    0.2571384389    0.5704581490
H1039      H    0.2565835640    0.3005300798    0.5710920058
H1040      H    0.1906133429    0.2347629328    0.4285108524
H1041      H    0.2356425238    0.1917975973    0.4274938113
O1042      O    0.1096132975    0.2983993949    0.5075485250
H1043      H    0.1164778817    0.2847923134    0.4888248664
H1044      H    0.0714794224    0.3514732059    0.5099035412
C953       C    0.2270004040    0.7983862067    0.5406333893
C954       C    0.2013272478    0.7735292594    0.5398496442
C955       C    0.2055726142    0.7426418841    0.5220857480
C956       C    0.2367706240    0.7378040089    0.5052539027
C957       C    0.2411659935    0.7069480555    0.4876693182
C958       C    0.2724550832    0.7022495489    0.4707540347
C959       C    0.2980008022    0.7272316475    0.4712761067
C960       C    0.2936686002    0.7582309699    0.4888082565
C961       C    0.2625803855    0.7629330186    0.5058972658
C962       C    0.2582250464    0.7937302654    0.5235787816
C963       C    0.2858538454    0.8202665110    0.5243703132
O964       O    0.2816404847    0.8456167223    0.5424334468
N965       N    0.3146423976    0.8148646211    0.5059368606
C966       C    0.3208071103    0.7853135317    0.4889229419
O967       O    0.3474131562    0.7796258119    0.4733416689
C968       C    0.3398714817    0.8411785011    0.5044258438
C969       C    0.3582175588    0.8511997433    0.5337187893
C970       C    0.3840620434    0.8757831097    0.5314080844
C971       C    0.1084622687    0.6084622687    0.5000000000
C972       C    0.3729788150    0.8818766725    0.4708746711
C973       C    0.3474154672    0.8569610019    0.4730081711
C974       C    0.2137206176    0.6801787398    0.4871429733
O975       O    0.2193653421    0.6535643227    0.4715562999
N976       N    0.1841224517    0.6864675989    0.5040249707
C977       C    0.1778773271    0.7162028697    0.5205895048
O978       O    0.1501532858    0.7229391682    0.5337276826
C979       C    0.1582022577    0.6607957849    0.5034505261
C980       C    0.1639316229    0.6290485627    0.5193204470
C981       C    0.1392732582    0.6031924114    0.5175948493
C982       C    0.1026889570    0.6401847028    0.4841645243
C983       C    0.1270720206    0.6662295355    0.4862327356
H984       H    0.3340224750    0.8497306992    0.4501494872
H985       H    0.1875173159    0.6240342480    0.5324609324
C986       C    0.3915377313    0.8915377313    0.5000000000
H987       H    0.3785582830    0.8934712746    0.4465761554
H988       H    0.1442254181    0.5789741371    0.5296284310
H989       H    0.0797408374    0.6451509179    0.4699822468
O990       O    0.1197157213    0.6968297730    0.4717969091
H991       H    0.1211750430    0.7145508761    0.4881214156
H992       H    0.2770101412    0.6789199735    0.4569223650
H993       H    0.3214824451    0.7224640707    0.4577775155
H994       H    0.2225127999    0.8216367901    0.5546101238
H995       H    0.1777697648    0.7783853087    0.5531777357
O996       O    0.3509261984    0.8378598989    0.5648262949
H997       H    0.3275429898    0.8407714419    0.5700797747
H998       H    0.3980002605    0.8819935230    0.5542044375
C907       C   -0.2095134748    0.4484819196    0.2349000856
C908       C   -0.2353431544    0.4479253715    0.2101996615
C909       C   -0.2607635707    0.4732219966    0.2089780690
C910       C   -0.2590123234    0.4991327602    0.2335869562
C911       C   -0.2842137341    0.5245085384    0.2323277831
C912       C   -0.2824068709    0.5503873404    0.2571115031
C913       C   -0.2567665902    0.5507721542    0.2819990399
C914       C   -0.2315000195    0.5253410491    0.2833995896
C915       C   -0.2330793046    0.4995972127    0.2585927087
C916       C   -0.2078174291    0.4742887049    0.2597727410
C917       C   -0.1801611781    0.4750403892    0.2862815344
O918       O   -0.1572093292    0.4536726371    0.2844665362
N919       N   -0.1810528116    0.4996883641    0.3105598302
C920       C   -0.2043076880    0.5253776115    0.3104283300
O921       O   -0.2044420655    0.5486106378    0.3314810336
C922       C   -0.1563635378    0.4989608936    0.3374135206
C923       C   -0.1213652981    0.5040828673    0.3307826003
C924       C   -0.0977683188    0.5050344645    0.3576134719
C925       C   -0.3915377313    0.5000000000    0.1084622687
C926       C   -0.1432758122    0.4944686120    0.3981312998
C927       C   -0.1670156509    0.4939552492    0.3713921200
C928       C   -0.3117019357    0.5240443559    0.2056012931
O929       O   -0.3327845906    0.5472530483    0.2057142555
N930       N   -0.3118903806    0.4982375111    0.1824804312
C931       C   -0.2889047187    0.4723729303    0.1829849156
O932       O   -0.2905601943    0.4476720246    0.1636526483
C933       C   -0.3380956736    0.4980768939    0.1570937162
C934       C   -0.3393988656    0.5241547227    0.1323790512
C935       C   -0.3658603010    0.5250463208    0.1083259706
C936       C   -0.3902448078    0.4739077321    0.1331184676
C937       C   -0.3635905393    0.4726792406    0.1568920955
H938       H   -0.1935655669    0.4901941231    0.3773187410
H939       H   -0.3204523295    0.5440290440    0.1320038933
C940       C   -0.1084622687    0.5000000000    0.3915377313
H941       H   -0.1519428949    0.4908492708    0.4239724526
H942       H   -0.3666075201    0.5453526738    0.0898070754
H943       H   -0.4096240906    0.4545452112    0.1345158459
O944       O   -0.3626668398    0.4462248178    0.1792123341
H945       H   -0.3417490404    0.4343049257    0.1774749596
H946       H   -0.3012083242    0.5704581490    0.2571384389
H947       H   -0.2565835640    0.5710920058    0.3005300798
H948       H   -0.1906133429    0.4285108524    0.2347629328
H949       H   -0.2356425238    0.4274938113    0.1917975973
O950       O   -0.1096132975    0.5075485250    0.2983993949
H951       H   -0.1164778817    0.4888248664    0.2847923134
H952       H   -0.0714794224    0.5099035412    0.3514732059
C861       C    0.2991220894    0.4606944516    0.2737354786
C862       C    0.2742505766    0.4614929558    0.2993940694
C863       C    0.2430421569    0.4786041082    0.2948276586
C864       C    0.2379005476    0.4947669004    0.2633259148
C865       C    0.2067268708    0.5116966190    0.2586128218
C866       C    0.2017230860    0.5279437102    0.2270184538
C867       C    0.2267148903    0.5274114399    0.2014824407
C868       C    0.2580309574    0.5105356146    0.2061313873
C869       C    0.2630415157    0.4941112241    0.2375281116
C870       C    0.2941582870    0.4770827895    0.2422029752
C871       C    0.3207092882    0.4762714144    0.2145889319
O872       O    0.3463869959    0.4587586089    0.2191297890
N873       N    0.3149738692    0.4940692421    0.1854668505
C874       C    0.2851156398    0.5104199382    0.1789949978
O875       O    0.2791465724    0.5254014669    0.1521076043
C876       C    0.3412597506    0.4955997158    0.1602097677
C877       C    0.3518216279    0.4661634545    0.1424043258
C878       C    0.3763626726    0.4684501616    0.1165175194
C879       C    0.1084622687    0.5000000000    0.3915377313
C880       C    0.3813390257    0.5292792497    0.1264835382
C881       C    0.3564625188    0.5271583953    0.1520860497
C882       C    0.1799477516    0.5122352304    0.2860483942
O883       O    0.1530518815    0.5272227951    0.2801222167
N884       N    0.1865412932    0.4960195628    0.3159512425
C885       C    0.2165753868    0.4801229698    0.3224951900
O886       O    0.2235476933    0.4676235905    0.3504552393
C887       C    0.1608588627    0.4965983849    0.3418608201
C888       C    0.1294101246    0.4800439736    0.3364299390
C889       C    0.1035224115    0.4817469376    0.3610567419
C890       C    0.1398868495    0.5165203305    0.3970131897
C891       C    0.1659694723    0.5144834099    0.3726679161
H892       H    0.3488103892    0.5501227748    0.1650572150
H893       H    0.1246425463    0.4663814727    0.3130909825
C894       C    0.3915377313    0.5000000000    0.1084622687
H895       H    0.3924853215    0.5536802570    0.1204557638
H896       H    0.0795305944    0.4691804649    0.3563310392
H897       H    0.1445872671    0.5312116484    0.4196955118
O898       O    0.1962975431    0.5296130479    0.3797520488
H899       H    0.2143163921    0.5135934207    0.3785904729
H900       H    0.1781436224    0.5412573919    0.2222135077
H901       H    0.2217036185    0.5403854448    0.1777571027
H902       H    0.3226252560    0.4472330585    0.2784756661
H903       H    0.2793471544    0.4486924176    0.3231920809
O904       O    0.3390554354    0.4349551510    0.1502693381
H905       H    0.3420592286    0.4301874855    0.1737447970
H906       H    0.3829940306    0.4455192810    0.1030002471
C815       C    0.2904865252    0.4484819196    0.7349000856
C816       C    0.2646568456    0.4479253715    0.7101996615
C817       C    0.2392364293    0.4732219966    0.7089780690
C818       C    0.2409876766    0.4991327602    0.7335869562
C819       C    0.2157862659    0.5245085384    0.7323277831
C820       C    0.2175931291    0.5503873404    0.7571115031
C821       C    0.2432334098    0.5507721542    0.7819990399
C822       C    0.2684999805    0.5253410491    0.7833995896
C823       C    0.2669206954    0.4995972127    0.7585927087
C824       C    0.2921825709    0.4742887049    0.7597727410
C825       C    0.3198388219    0.4750403892    0.7862815344
O826       O    0.3427906708    0.4536726371    0.7844665362
N827       N    0.3189471884    0.4996883641    0.8105598302
C828       C    0.2956923120    0.5253776115    0.8104283300
O829       O    0.2955579345    0.5486106378    0.8314810336
C830       C    0.3436364622    0.4989608936    0.8374135206
C831       C    0.3786347019    0.5040828673    0.8307826003
C832       C    0.4022316812    0.5050344645    0.8576134719
C833       C    0.1084622687    0.5000000000    0.6084622687
C834       C    0.3567241878    0.4944686120    0.8981312998
C835       C    0.3329843491    0.4939552492    0.8713921200
C836       C    0.1882980643    0.5240443559    0.7056012931
O837       O    0.1672154094    0.5472530483    0.7057142555
N838       N    0.1881096194    0.4982375111    0.6824804312
C839       C    0.2110952813    0.4723729303    0.6829849156
O840       O    0.2094398057    0.4476720246    0.6636526483
C841       C    0.1619043264    0.4980768939    0.6570937162
C842       C    0.1606011344    0.5241547227    0.6323790512
C843       C    0.1341396990    0.5250463208    0.6083259706
C844       C    0.1097551922    0.4739077321    0.6331184676
C845       C    0.1364094607    0.4726792406    0.6568920955
H846       H    0.3064344331    0.4901941231    0.8773187410
H847       H    0.1795476705    0.5440290440    0.6320038933
C848       C    0.3915377313    0.5000000000    0.8915377313
H849       H    0.3480571051    0.4908492708    0.9239724526
H850       H    0.1333924799    0.5453526738    0.5898070754
H851       H    0.0903759094    0.4545452112    0.6345158459
O852       O    0.1373331602    0.4462248178    0.6792123341
H853       H    0.1582509596    0.4343049257    0.6774749596
H854       H    0.1987916758    0.5704581490    0.7571384389
H855       H    0.2434164360    0.5710920058    0.8005300798
H856       H    0.3093866571    0.4285108524    0.7347629328
H857       H    0.2643574762    0.4274938113    0.6917975973
O858       O    0.3903867025    0.5075485250    0.7983993949
H859       H    0.3835221183    0.4888248664    0.7847923134
H860       H    0.4285205776    0.5099035412    0.8514732059
C769       C   -0.2013165728    0.4598943770    0.7732968165
C770       C   -0.2261793124    0.4606840888    0.7989641805
C771       C   -0.2571965186    0.4781883643    0.7945889830
C772       C   -0.2621573383    0.4947539901    0.7632680288
C773       C   -0.2931417993    0.5120780906    0.7587441517
C774       C   -0.2979638659    0.5287275058    0.7273315019
C775       C   -0.2729779085    0.5282013125    0.7017896419
C776       C   -0.2418504667    0.5109302344    0.7062499633
C777       C   -0.2370235735    0.4941056500    0.7374630224
C778       C   -0.2060971028    0.4766838966    0.7419475854
C779       C   -0.1795550001    0.4758843642    0.7143246436
O780       O   -0.1540726038    0.4580398656    0.7186701892
N781       N   -0.1850916760    0.4940650973    0.6854013054
C782       C   -0.2147670590    0.5108151433    0.6791122990
O783       O   -0.2205686175    0.5261578153    0.6523924144
C784       C   -0.1587889499    0.4955840188    0.6601610673
C785       C   -0.1485518187    0.4662313712    0.6420308792
C786       C   -0.1239854302    0.4685326661    0.6161694167
C787       C   -0.3915377313    0.5000000000    0.8915377313
C788       C   -0.1183379980    0.5291892588    0.6268065144
C789       C   -0.1432379787    0.5270606429    0.6523855521
C790       C   -0.3199150084    0.5126093844    0.7861856342
O791       O   -0.3466433050    0.5279577114    0.7804270302
N792       N   -0.3135028316    0.4959925131    0.8159071178
C793       C   -0.2836465829    0.4796937755    0.8222732203
O794       O   -0.2768144912    0.4668100171    0.8500930548
C795       C   -0.3391788816    0.4965687552    0.8418230758
C796       C   -0.3708082490    0.4804237807    0.8362115654
C797       C   -0.3966770721    0.4821404664    0.8608572583
C798       C   -0.3599328990    0.5161106723    0.8971934412
C799       C   -0.3338728845    0.5140548075    0.8728255594
H800       H   -0.1506367410    0.5499634593    0.6656100848
H801       H   -0.3757250443    0.4670734457    0.8127233918
C802       C   -0.1084622687    0.5000000000    0.6084622687
H803       H   -0.1069224520    0.5535307427    0.6210479904
H804       H   -0.4208059610    0.4698927754    0.8559944837
H805       H   -0.3550718546    0.5304976947    0.9200363901
O806       O   -0.3033799566    0.5287692990    0.8800745491
H807       H   -0.2855391083    0.5125654014    0.8787349725
H808       H   -0.3213945185    0.5423531307    0.7226753668
H809       H   -0.2778441003    0.5414911928    0.6782093839
H810       H   -0.1779638403    0.4461226170    0.7778865698
H811       H   -0.2212259078    0.4475659086    0.8226190187
O812       O   -0.1616624762    0.4350810210    0.6495514264
H813       H   -0.1587129683    0.4300214158    0.6729726001
H814       H   -0.1176069739    0.4456806542    0.6023992427
C723       C   -0.2728495898   -0.2017637995    0.0408955248
C724       C   -0.2985256246   -0.2266178683    0.0401147938
C725       C   -0.2943458636   -0.2574396380    0.0222218565
C726       C   -0.2632100357   -0.2622153314    0.0052576342
C727       C   -0.2588796127   -0.2930063383   -0.0124564301
C728       C   -0.2276530115   -0.2976423563   -0.0295039119
C729       C   -0.2021053752   -0.2726621751   -0.0289839209
C730       C   -0.2063728231   -0.2417276068   -0.0113219954
C731       C   -0.2373979113   -0.2370886846    0.0058984836
C732       C   -0.2416879479   -0.2063567402    0.0237091145
C733       C   -0.2140562437   -0.1798234000    0.0244966151
O734       O   -0.2182029354   -0.1545398576    0.0426682921
N735       N   -0.1853357545   -0.1851572269    0.0059375980
C736       C   -0.1792338914   -0.2146454666   -0.0112075175
O737       O   -0.1526854002   -0.2202756317   -0.0269074142
C738       C   -0.1601122232   -0.1588377940    0.0044305934
C739       C   -0.1416584102   -0.1489242877    0.0336925085
C740       C   -0.1158224370   -0.1243324098    0.0313771942
C741       C   -0.3915377313   -0.3915377313   -0.0000000000
C742       C   -0.1271283002   -0.1180162122   -0.0290921921
C743       C   -0.1526837928   -0.1429397381   -0.0269563378
C744       C   -0.2863269209   -0.3197737218   -0.0129802801
O745       O   -0.2807397706   -0.3463305645   -0.0286854497
N746       N   -0.3158627213   -0.3135472281    0.0040335459
C747       C   -0.3220466481   -0.2838731551    0.0207302564
O748       O   -0.3497221101   -0.2771854359    0.0339950637
C749       C   -0.3417850275   -0.3392169299    0.0034600231
C750       C   -0.3359975178   -0.3710222966    0.0191918226
C751       C   -0.3606622405   -0.3968720899    0.0174618407
C752       C   -0.3973690606   -0.3597572796   -0.0156972843
C753       C   -0.3729783751   -0.3337200688   -0.0136229860
H754       H   -0.1661608587   -0.1500859671   -0.0497920346
H755       H   -0.3123636641   -0.3760847721    0.0322268877
C756       C   -0.1084622687   -0.1084622687   -0.0000000000
H757       H   -0.1216382052   -0.1063322371   -0.0533682443
H758       H   -0.3556659968   -0.4211344479    0.0293879180
H759       H   -0.4203691792   -0.3547390655   -0.0297766505
O760       O   -0.3803875384   -0.3030669673   -0.0279189445
H761       H   -0.3788680356   -0.2854060452   -0.0115348188
H762       H   -0.2231490401   -0.3209208451   -0.0434380042
H763       H   -0.1786735957   -0.2773798885   -0.0425862809
H764       H   -0.2772855745   -0.1785648355    0.0549741411
H765       H   -0.3220338703   -0.2218110561    0.0535472611
O766       O   -0.1488353420   -0.1623785606    0.0647773357
H767       H   -0.1721990409   -0.1594865275    0.0701275039
H768       H   -0.1018003862   -0.1182058303    0.0541448019
C677       C   -0.2095134748    0.2650999144   -0.0515180804
C678       C   -0.2353431544    0.2898003385   -0.0520746285
C679       C   -0.2607635707    0.2910219310   -0.0267780034
C680       C   -0.2590123234    0.2664130438   -0.0008672398
C681       C   -0.2842137341    0.2676722169    0.0245085384
C682       C   -0.2824068709    0.2428884969    0.0503873404
C683       C   -0.2567665902    0.2180009601    0.0507721542
C684       C   -0.2315000195    0.2166004104    0.0253410491
C685       C   -0.2330793046    0.2414072913   -0.0004027873
C686       C   -0.2078174291    0.2402272590   -0.0257112951
C687       C   -0.1801611781    0.2137184656   -0.0249596108
O688       O   -0.1572093292    0.2155334638   -0.0463273629
N689       N   -0.1810528116    0.1894401698   -0.0003116359
C690       C   -0.2043076880    0.1895716700    0.0253776115
O691       O   -0.2044420655    0.1685189664    0.0486106378
C692       C   -0.1563635378    0.1625864794   -0.0010391064
C693       C   -0.1213652981    0.1692173997    0.0040828673
C694       C   -0.0977683188    0.1423865281    0.0050344645
C695       C   -0.3915377313    0.3915377313   -0.0000000000
C696       C   -0.1432758122    0.1018687002   -0.0055313880
C697       C   -0.1670156509    0.1286078800   -0.0060447508
C698       C   -0.3117019357    0.2943987069    0.0240443559
O699       O   -0.3327845906    0.2942857445    0.0472530483
N700       N   -0.3118903806    0.3175195688   -0.0017624889
C701       C   -0.2889047187    0.3170150844   -0.0276270697
O702       O   -0.2905601943    0.3363473517   -0.0523279754
C703       C   -0.3380956736    0.3429062838   -0.0019231061
C704       C   -0.3393988656    0.3676209488    0.0241547227
C705       C   -0.3658603010    0.3916740294    0.0250463208
C706       C   -0.3902448078    0.3668815324   -0.0260922679
C707       C   -0.3635905393    0.3431079045   -0.0273207594
H708       H   -0.1935655669    0.1226812590   -0.0098058769
H709       H   -0.3204523295    0.3679961067    0.0440290440
C710       C   -0.1084622687    0.1084622687    0.0000000000
H711       H   -0.1519428949    0.0760275474   -0.0091507292
H712       H   -0.3666075201    0.4101929246    0.0453526738
H713       H   -0.4096240906    0.3654841541   -0.0454547888
O714       O   -0.3626668398    0.3207876659   -0.0537751822
H715       H   -0.3417490404    0.3225250404   -0.0656950743
H716       H   -0.3012083242    0.2428615611    0.0704581490
H717       H   -0.2565835640    0.1994699202    0.0710920058
H718       H   -0.1906133429    0.2652370672   -0.0714891476
H719       H   -0.2356425238    0.3082024027   -0.0725061887
O720       O   -0.1096132975    0.2016006051    0.0075485250
H721       H   -0.1164778817    0.2152076866   -0.0111751336
H722       H   -0.0714794224    0.1485267941    0.0099035412
C631       C    0.2271504102   -0.2982362005   -0.0408955248
C632       C    0.2014743754   -0.2733821317   -0.0401147938
C633       C    0.2056541364   -0.2425603620   -0.0222218565
C634       C    0.2367899643   -0.2377846686   -0.0052576342
C635       C    0.2411203873   -0.2069936617    0.0124564301
C636       C    0.2723469885   -0.2023576437    0.0295039119
C637       C    0.2978946248   -0.2273378249    0.0289839209
C638       C    0.2936271769   -0.2582723932    0.0113219954
C639       C    0.2626020887   -0.2629113154   -0.0058984836
C640       C    0.2583120521   -0.2936432598   -0.0237091145
C641       C    0.2859437563   -0.3201766000   -0.0244966151
O642       O    0.2817970646   -0.3454601424   -0.0426682921
N643       N    0.3146642455   -0.3148427731   -0.0059375980
C644       C    0.3207661086   -0.2853545334    0.0112075175
O645       O    0.3473145998   -0.2797243683    0.0269074142
C646       C    0.3398877768   -0.3411622060   -0.0044305934
C647       C    0.3583415898   -0.3510757123   -0.0336925085
C648       C    0.3841775630   -0.3756675902   -0.0313771942
C649       C    0.1084622687   -0.1084622687   -0.0000000000
C650       C    0.3728716998   -0.3819837878    0.0290921921
C651       C    0.3473162072   -0.3570602619    0.0269563378
C652       C    0.2136730791   -0.1802262782    0.0129802801
O653       O    0.2192602294   -0.1536694355    0.0286854497
N654       N    0.1841372787   -0.1864527719   -0.0040335459
C655       C    0.1779533519   -0.2161268449   -0.0207302564
O656       O    0.1502778899   -0.2228145641   -0.0339950637
C657       C    0.1582149725   -0.1607830701   -0.0034600231
C658       C    0.1640024822   -0.1289777034   -0.0191918226
C659       C    0.1393377595   -0.1031279101   -0.0174618407
C660       C    0.1026309394   -0.1402427204    0.0156972843
C661       C    0.1270216249   -0.1662799312    0.0136229860
H662       H    0.3338391413   -0.3499140329    0.0497920346
H663       H    0.1876363359   -0.1239152279   -0.0322268877
C664       C    0.3915377313   -0.3915377313   -0.0000000000
H665       H    0.3783617948   -0.3936677629    0.0533682443
H666       H    0.1443340032   -0.0788655521   -0.0293879180
H667       H    0.0796308208   -0.1452609345    0.0297766505
O668       O    0.1196124616   -0.1969330327    0.0279189445
H669       H    0.1211319644   -0.2145939548    0.0115348188
H670       H    0.2768509599   -0.1790791549    0.0434380042
H671       H    0.3213264043   -0.2226201115    0.0425862809
H672       H    0.2227144255   -0.3214351645   -0.0549741411
H673       H    0.1779661297   -0.2781889439   -0.0535472611
O674       O    0.3511646580   -0.3376214394   -0.0647773357
H675       H    0.3278009591   -0.3405134725   -0.0701275039
H676       H    0.3981996138   -0.3817941697   -0.0541448019
C585       C    0.2982362005    0.2271504102   -0.0408955248
C586       C    0.2733821317    0.2014743754   -0.0401147938
C587       C    0.2425603620    0.2056541364   -0.0222218565
C588       C    0.2377846686    0.2367899643   -0.0052576342
C589       C    0.2069936617    0.2411203873    0.0124564301
C590       C    0.2023576437    0.2723469885    0.0295039119
C591       C    0.2273378249    0.2978946248    0.0289839209
C592       C    0.2582723932    0.2936271769    0.0113219954
C593       C    0.2629113154    0.2626020887   -0.0058984836
C594       C    0.2936432598    0.2583120521   -0.0237091145
C595       C    0.3201766000    0.2859437563   -0.0244966151
O596       O    0.3454601424    0.2817970646   -0.0426682921
N597       N    0.3148427731    0.3146642455   -0.0059375980
C598       C    0.2853545334    0.3207661086    0.0112075175
O599       O    0.2797243683    0.3473145998    0.0269074142
C600       C    0.3411622060    0.3398877768   -0.0044305934
C601       C    0.3510757123    0.3583415898   -0.0336925085
C602       C    0.3756675902    0.3841775630   -0.0313771942
C603       C    0.1084622687    0.1084622687    0.0000000000
C604       C    0.3819837878    0.3728716998    0.0290921921
C605       C    0.3570602619    0.3473162072    0.0269563378
C606       C    0.1802262782    0.2136730791    0.0129802801
O607       O    0.1536694355    0.2192602294    0.0286854497
N608       N    0.1864527719    0.1841372787   -0.0040335459
C609       C    0.2161268449    0.1779533519   -0.0207302564
O610       O    0.2228145641    0.1502778899   -0.0339950637
C611       C    0.1607830701    0.1582149725   -0.0034600231
C612       C    0.1289777034    0.1640024822   -0.0191918226
C613       C    0.1031279101    0.1393377595   -0.0174618407
C614       C    0.1402427204    0.1026309394    0.0156972843
C615       C    0.1662799312    0.1270216249    0.0136229860
H616       H    0.3499140329    0.3338391413    0.0497920346
H617       H    0.1239152279    0.1876363359   -0.0322268877
C618       C    0.3915377313    0.3915377313   -0.0000000000
H619       H    0.3936677629    0.3783617948    0.0533682443
H620       H    0.0788655521    0.1443340032   -0.0293879180
H621       H    0.1452609345    0.0796308208    0.0297766505
O622       O    0.1969330327    0.1196124616    0.0279189445
H623       H    0.2145939548    0.1211319644    0.0115348188
H624       H    0.1790791549    0.2768509599    0.0434380042
H625       H    0.2226201115    0.3213264043    0.0425862809
H626       H    0.3214351645    0.2227144255   -0.0549741411
H627       H    0.2781889439    0.1779661297   -0.0535472611
O628       O    0.3376214394    0.3511646580   -0.0647773357
H629       H    0.3405134725    0.3278009591   -0.0701275039
H630       H    0.3817941697    0.3981996138   -0.0541448019
C539       C   -0.2991220894    0.0393055484   -0.2262645214
C540       C   -0.2742505766    0.0385070442   -0.2006059306
C541       C   -0.2430421569    0.0213958918   -0.2051723414
C542       C   -0.2379005476    0.0052330996   -0.2366740852
C543       C   -0.2067268708   -0.0116966190   -0.2413871782
C544       C   -0.2017230860   -0.0279437102   -0.2729815462
C545       C   -0.2267148903   -0.0274114399   -0.2985175593
C546       C   -0.2580309574   -0.0105356146   -0.2938686127
C547       C   -0.2630415157    0.0058887759   -0.2624718884
C548       C   -0.2941582870    0.0229172105   -0.2577970248
C549       C   -0.3207092882    0.0237285856   -0.2854110681
O550       O   -0.3463869959    0.0412413911   -0.2808702110
N551       N   -0.3149738692    0.0059307579   -0.3145331495
C552       C   -0.2851156398   -0.0104199382   -0.3210050022
O553       O   -0.2791465724   -0.0254014669   -0.3478923957
C554       C   -0.3412597506    0.0044002842   -0.3397902323
C555       C   -0.3518216279    0.0338365455   -0.3575956742
C556       C   -0.3763626726    0.0315498384   -0.3834824806
C557       C   -0.1084622687    0.0000000000   -0.1084622687
C558       C   -0.3813390257   -0.0292792497   -0.3735164618
C559       C   -0.3564625188   -0.0271583953   -0.3479139503
C560       C   -0.1799477516   -0.0122352304   -0.2139516058
O561       O   -0.1530518815   -0.0272227951   -0.2198777833
N562       N   -0.1865412932    0.0039804372   -0.1840487575
C563       C   -0.2165753868    0.0198770302   -0.1775048100
O564       O   -0.2235476933    0.0323764095   -0.1495447607
C565       C   -0.1608588627    0.0034016151   -0.1581391799
C566       C   -0.1294101246    0.0199560264   -0.1635700610
C567       C   -0.1035224115    0.0182530624   -0.1389432581
C568       C   -0.1398868495   -0.0165203305   -0.1029868103
C569       C   -0.1659694723   -0.0144834099   -0.1273320839
H570       H   -0.3488103892   -0.0501227748   -0.3349427850
H571       H   -0.1246425463    0.0336185273   -0.1869090175
C572       C   -0.3915377313   -0.0000000000   -0.3915377313
H573       H   -0.3924853215   -0.0536802570   -0.3795442362
H574       H   -0.0795305944    0.0308195351   -0.1436689608
H575       H   -0.1445872671   -0.0312116484   -0.0803044882
O576       O   -0.1962975431   -0.0296130479   -0.1202479512
H577       H   -0.2143163921   -0.0135934207   -0.1214095271
H578       H   -0.1781436224   -0.0412573919   -0.2777864923
H579       H   -0.2217036185   -0.0403854448   -0.3222428973
H580       H   -0.3226252560    0.0527669415   -0.2215243339
H581       H   -0.2793471544    0.0513075824   -0.1768079191
O582       O   -0.3390554354    0.0650448490   -0.3497306619
H583       H   -0.3420592286    0.0698125145   -0.3262552030
H584       H   -0.3829940306    0.0544807190   -0.3969997529
C493       C    0.2656656526   -0.0508977185   -0.2089477367
C494       C    0.2903722938   -0.0514666738   -0.2347711990
C495       C    0.2913159063   -0.0264404652   -0.2604695953
C496       C    0.2664221727   -0.0007853768   -0.2590031944
C497       C    0.2674024757    0.0243228099   -0.2844834753
C498       C    0.2423342697    0.0499446235   -0.2829610981
C499       C    0.2174424359    0.0503377061   -0.2573251145
C500       C    0.2163213721    0.0251733574   -0.2317790578
C501       C    0.2414112328   -0.0003107373   -0.2330753631
C502       C    0.2405093189   -0.0253501194   -0.2075353692
C503       C    0.2139921515   -0.0245858507   -0.1798874922
O504       O    0.2160416921   -0.0456773906   -0.1567011010
N505       N    0.1894431006   -0.0002189410   -0.1810498807
C506       C    0.1892922178    0.0252117225   -0.2045871402
O507       O    0.1679841474    0.0482078555   -0.2049768845
C508       C    0.1625975788   -0.0009702335   -0.1563524383
C509       C    0.1691693754    0.0046110005   -0.1214133225
C510       C    0.1423281886    0.0055267561   -0.0978266583
C511       C    0.3915377313   -0.0000000000   -0.3915377313
C512       C    0.1019323333   -0.0059881453   -0.1432121791
C513       C    0.1286770013   -0.0064683112   -0.1669465296
C514       C    0.2941341401    0.0238502692   -0.3119665025
O515       O    0.2937660803    0.0468219769   -0.3333042549
N516       N    0.3175386958   -0.0017000871   -0.3118712535
C517       C    0.3173185707   -0.0273131572   -0.2886012325
O518       O    0.3369226350   -0.0518157693   -0.2899849110
C519       C    0.3429272351   -0.0018697277   -0.3380747223
C520       C    0.3673523846    0.0244635496   -0.3396674298
C521       C    0.3913957626    0.0253284333   -0.3661385679
C522       C    0.3671712045   -0.0263471821   -0.3899551357
C523       C    0.3434109722   -0.0275437006   -0.3632874716
H524       H    0.1227939120   -0.0105877529   -0.1934529138
H525       H    0.3675068079    0.0445488957   -0.3209416282
C526       C    0.1084622687    0.0000000000   -0.1084622687
H527       H    0.0761332700   -0.0099882640   -0.1518371724
H528       H    0.4096892450    0.0458286351   -0.3671111997
H529       H    0.3659889956   -0.0459368636   -0.4091192491
O530       O    0.3213842864   -0.0542312664   -0.3620702193
H531       H    0.3232519598   -0.0658994276   -0.3410221210
H532       H    0.2420867567    0.0698049816   -0.3019831286
H533       H    0.1986880383    0.0704523836   -0.2573654459
H534       H    0.2660222679   -0.0706560396   -0.1898281421
H535       H    0.3089989648   -0.0716957563   -0.2348459617
O536       O    0.2015116016    0.0085638055   -0.1097023010
H537       H    0.2153251156   -0.0100830823   -0.1163604527
H538       H    0.1484126860    0.0107534898   -0.0715935305
C447       C    0.2991220894    0.0393055484    0.2262645214
C448       C    0.2742505766    0.0385070442    0.2006059306
C449       C    0.2430421569    0.0213958918    0.2051723414
C450       C    0.2379005476    0.0052330996    0.2366740852
C451       C    0.2067268708   -0.0116966190    0.2413871782
C452       C    0.2017230860   -0.0279437102    0.2729815462
C453       C    0.2267148903   -0.0274114399    0.2985175593
C454       C    0.2580309574   -0.0105356146    0.2938686127
C455       C    0.2630415157    0.0058887759    0.2624718884
C456       C    0.2941582870    0.0229172105    0.2577970248
C457       C    0.3207092882    0.0237285856    0.2854110681
O458       O    0.3463869959    0.0412413911    0.2808702110
N459       N    0.3149738692    0.0059307579    0.3145331495
C460       C    0.2851156398   -0.0104199382    0.3210050022
O461       O    0.2791465724   -0.0254014669    0.3478923957
C462       C    0.3412597506    0.0044002842    0.3397902323
C463       C    0.3518216279    0.0338365455    0.3575956742
C464       C    0.3763626726    0.0315498384    0.3834824806
C465       C    0.1084622687   -0.0000000000    0.1084622687
C466       C    0.3813390257   -0.0292792497    0.3735164618
C467       C    0.3564625188   -0.0271583953    0.3479139503
C468       C    0.1799477516   -0.0122352304    0.2139516058
O469       O    0.1530518815   -0.0272227951    0.2198777833
N470       N    0.1865412932    0.0039804372    0.1840487575
C471       C    0.2165753868    0.0198770302    0.1775048100
O472       O    0.2235476933    0.0323764095    0.1495447607
C473       C    0.1608588627    0.0034016151    0.1581391799
C474       C    0.1294101246    0.0199560264    0.1635700610
C475       C    0.1035224115    0.0182530624    0.1389432581
C476       C    0.1398868495   -0.0165203305    0.1029868103
C477       C    0.1659694723   -0.0144834099    0.1273320839
H478       H    0.3488103892   -0.0501227748    0.3349427850
H479       H    0.1246425463    0.0336185273    0.1869090175
C480       C    0.3915377313   -0.0000000000    0.3915377313
H481       H    0.3924853215   -0.0536802570    0.3795442362
H482       H    0.0795305944    0.0308195351    0.1436689608
H483       H    0.1445872671   -0.0312116484    0.0803044882
O484       O    0.1962975431   -0.0296130479    0.1202479512
H485       H    0.2143163921   -0.0135934207    0.1214095271
H486       H    0.1781436224   -0.0412573919    0.2777864923
H487       H    0.2217036185   -0.0403854448    0.3222428973
H488       H    0.3226252560    0.0527669415    0.2215243339
H489       H    0.2793471544    0.0513075824    0.1768079191
O490       O    0.3390554354    0.0650448490    0.3497306619
H491       H    0.3420592286    0.0698125145    0.3262552030
H492       H    0.3829940306    0.0544807190    0.3969997529
C401       C   -0.2904865252    0.0515180804    0.2349000856
C402       C   -0.2646568456    0.0520746285    0.2101996615
C403       C   -0.2392364293    0.0267780034    0.2089780690
C404       C   -0.2409876766    0.0008672398    0.2335869562
C405       C   -0.2157862659   -0.0245085384    0.2323277831
C406       C   -0.2175931291   -0.0503873404    0.2571115031
C407       C   -0.2432334098   -0.0507721542    0.2819990399
C408       C   -0.2684999805   -0.0253410491    0.2833995896
C409       C   -0.2669206954    0.0004027873    0.2585927087
C410       C   -0.2921825709    0.0257112951    0.2597727410
C411       C   -0.3198388219    0.0249596108    0.2862815344
O412       O   -0.3427906708    0.0463273629    0.2844665362
N413       N   -0.3189471884    0.0003116359    0.3105598302
C414       C   -0.2956923120   -0.0253776115    0.3104283300
O415       O   -0.2955579345   -0.0486106378    0.3314810336
C416       C   -0.3436364622    0.0010391064    0.3374135206
C417       C   -0.3786347019   -0.0040828673    0.3307826003
C418       C   -0.4022316812   -0.0050344645    0.3576134719
C419       C   -0.1084622687   -0.0000000000    0.1084622687
C420       C   -0.3567241878    0.0055313880    0.3981312998
C421       C   -0.3329843491    0.0060447508    0.3713921200
C422       C   -0.1882980643   -0.0240443559    0.2056012931
O423       O   -0.1672154094   -0.0472530483    0.2057142555
N424       N   -0.1881096194    0.0017624889    0.1824804312
C425       C   -0.2110952813    0.0276270697    0.1829849156
O426       O   -0.2094398057    0.0523279754    0.1636526483
C427       C   -0.1619043264    0.0019231061    0.1570937162
C428       C   -0.1606011344   -0.0241547227    0.1323790512
C429       C   -0.1341396990   -0.0250463208    0.1083259706
C430       C   -0.1097551922    0.0260922679    0.1331184676
C431       C   -0.1364094607    0.0273207594    0.1568920955
H432       H   -0.3064344331    0.0098058769    0.3773187410
H433       H   -0.1795476705   -0.0440290440    0.1320038933
C434       C   -0.3915377313   -0.0000000000    0.3915377313
H435       H   -0.3480571051    0.0091507292    0.4239724526
H436       H   -0.1333924799   -0.0453526738    0.0898070754
H437       H   -0.0903759094    0.0454547888    0.1345158459
O438       O   -0.1373331602    0.0537751822    0.1792123341
H439       H   -0.1582509596    0.0656950743    0.1774749596
H440       H   -0.1987916758   -0.0704581490    0.2571384389
H441       H   -0.2434164360   -0.0710920058    0.3005300798
H442       H   -0.3093866571    0.0714891476    0.2347629328
H443       H   -0.2643574762    0.0725061887    0.1917975973
O444       O   -0.3903867025   -0.0075485250    0.2983993949
H445       H   -0.3835221183    0.0111751336    0.2847923134
H446       H   -0.4285205776   -0.0099035412    0.3514732059
C355       C   -0.0510390829    0.2909249432   -0.2344616675
C356       C   -0.0516052449    0.2651000632   -0.2097564440
C357       C   -0.0265173546    0.2394642598   -0.2087502385
C358       C   -0.0008039046    0.2409948205   -0.2335798123
C359       C    0.0243653266    0.2155773367   -0.2325367123
C360       C    0.0500457982    0.2171637910   -0.2575408412
C361       C    0.0504370194    0.2428007542   -0.2824316955
C362       C    0.0252118138    0.2682838738   -0.2836156963
C363       C   -0.0003315585    0.2669238347   -0.2585895694
C364       C   -0.0254323305    0.2924012030   -0.2595541089
C365       C   -0.0246708911    0.3200509856   -0.2860693707
O366       O   -0.0458253391    0.3431846112   -0.2840725958
N367       N   -0.0002399061    0.3189495462   -0.3105574725
C368       C    0.0252497721    0.2954758868   -0.3106447552
O369       O    0.0482999630    0.2951436547   -0.3318953134
C370       C   -0.0009858279    0.3436451185   -0.3374048643
C371       C    0.0044916765    0.3785980468   -0.3308192553
C372       C    0.0054155563    0.4021870088   -0.3576581443
C373       C    0.0000000000    0.1084622687   -0.1084622687
C374       C   -0.0058849904    0.3567729913   -0.3980824963
C375       C   -0.0063726730    0.3330374319   -0.3713390372
C376       C    0.0238946659    0.1880931314   -0.2058062260
O377       O    0.0469204516    0.1668128304   -0.2061168345
N378       N   -0.0017142338    0.1881244820   -0.1824655687
C379       C   -0.0273847231    0.2113304493   -0.1827497475
O380       O   -0.0519326970    0.2098855061   -0.1632069479
C381       C   -0.0018818377    0.1619205920   -0.1570774506
C382       C    0.0243942395    0.1603935941   -0.1325865915
C383       C    0.0252651824    0.1339246241   -0.1085410455
C384       C   -0.0262901031    0.1099791198   -0.1328945400
C385       C   -0.0274938770    0.1366437859   -0.1566577703
H386       H   -0.0104111798    0.3065208583   -0.3772323159
H387       H    0.0444322973    0.1791695102   -0.1323820536
C388       C    0.0000000000    0.3915377313   -0.3915377313
H389       H   -0.0097990924    0.3481381130   -0.4238914446
H390       H    0.0457219886    0.1330031480   -0.0901964073
H391       H   -0.0458288371    0.0907661346   -0.1341256207
O392       O   -0.0541292940    0.1377944373   -0.1787510570
H393       H   -0.0658546263    0.1588133169   -0.1769126023
H394       H    0.0699541679    0.1981914320   -0.2577386827
H395       H    0.0705985209    0.2428107281   -0.3011357877
H396       H   -0.0708459326    0.3099951205   -0.2341544695
H397       H   -0.0718805440    0.2649747101   -0.1911803635
O398       O    0.0083344113    0.3903188050   -0.2984672923
H399       H   -0.0103302344    0.3836140508   -0.2847003808
H400       H    0.0105615275    0.4284330922   -0.3515606913
C309       C   -0.0123772412   -0.2822835923   -0.1923297970
C310       C   -0.0133237601   -0.3073882434   -0.2177552494
C311       C   -0.0057916823   -0.2997810541   -0.2520044476
C312       C    0.0028295337   -0.2658853146   -0.2595400526
C313       C    0.0105413284   -0.2582460867   -0.2936398643
C314       C    0.0190826413   -0.2242055988   -0.3010897690
C315       C    0.0197239085   -0.1990421130   -0.2757254373
C316       C    0.0119349565   -0.2065755940   -0.2415248360
C317       C    0.0036123193   -0.2405441364   -0.2339424595
C318       C   -0.0039836068   -0.2482132525   -0.1998314356
C319       C   -0.0028827180   -0.2212062377   -0.1726734059
O320       O   -0.0072120083   -0.2299320659   -0.1428107272
N321       N    0.0037083313   -0.1885266800   -0.1819663013
C322       C    0.0120391491   -0.1795089996   -0.2143703583
O323       O    0.0194444020   -0.1502165954   -0.2227444365
C324       C    0.0021476695   -0.1622883481   -0.1566616690
C325       C    0.0255365559   -0.1612517050   -0.1293309929
C326       C    0.0247280431   -0.1343823530   -0.1057724939
C327       C    0.0000000000   -0.3915377313   -0.3915377313
C328       C   -0.0235904839   -0.1097005860   -0.1354439264
C329       C   -0.0225647129   -0.1363019614   -0.1593215695
C330       C    0.0098365384   -0.2852869541   -0.3208136885
O331       O    0.0172195965   -0.2769468044   -0.3501235308
N332       N    0.0013281139   -0.3176363874   -0.3117735620
C333       C   -0.0074354908   -0.3264446284   -0.2794751748
O334       O   -0.0175871036   -0.3551499520   -0.2717575939
C335       C    0.0008234435   -0.3432020214   -0.3377999360
C336       C    0.0313112652   -0.3527042124   -0.3543156020
C337       C    0.0308458362   -0.3766426813   -0.3808916491
C338       C   -0.0304759635   -0.3820947005   -0.3750316397
C339       C   -0.0300403538   -0.3585343061   -0.3481641377
H340       H   -0.0406358982   -0.1362468095   -0.1800000163
H341       H    0.0552416990   -0.3412987457   -0.3471496905
C342       C    0.0000000000   -0.1084622687   -0.1084622687
H343       H   -0.0425104106   -0.0899210276   -0.1380494147
H344       H    0.0543707579   -0.3833738198   -0.3934266249
H345       H   -0.0547076375   -0.3924213198   -0.3826869249
O346       O   -0.0598627743   -0.3513488711   -0.3321056346
H347       H   -0.0581243647   -0.3558244009   -0.3084496799
H348       H    0.0252332523   -0.2171268098   -0.3269430755
H349       H    0.0262863461   -0.1732814891   -0.2827719951
H350       H   -0.0183551603   -0.2893993314   -0.1664510786
H351       H   -0.0200849474   -0.3331033847   -0.2107415418
O352       O    0.0488653362   -0.1864289525   -0.1247849501
H353       H    0.0380422543   -0.2079821819   -0.1237033864
H354       H    0.0436048900   -0.1341365129   -0.0858697036
C263       C    0.0220128717   -0.3057889677    0.2195976431
C264       C    0.0210840547   -0.2807296509    0.1941268562
C265       C    0.0123629173   -0.2467126017    0.2015018967
C266       C    0.0047308319   -0.2389838814    0.2355907514
C267       C   -0.0037934735   -0.2050427021    0.2430713469
C268       C   -0.0115155657   -0.1974328549    0.2772717773
C269       C   -0.0108922770   -0.2225502980    0.3026821516
C270       C   -0.0024359967   -0.2566206120    0.2952789581
C271       C    0.0054957513   -0.2642793046    0.2612340995
C272       C    0.0141344220   -0.2981867458    0.2537685661
C273       C    0.0151341381   -0.3249346588    0.2811856975
O274       O    0.0254186856   -0.3536346488    0.2736225582
N275       N    0.0055631777   -0.3162235535    0.3132834652
C276       C   -0.0023146796   -0.2837310616    0.3223895804
O277       O   -0.0096245122   -0.2753383539    0.3517006142
C278       C    0.0038848546   -0.3421605568    0.3388894261
C279       C    0.0335001122   -0.3591428423    0.3502744598
C280       C    0.0316049130   -0.3832292070    0.3766159461
C281       C   -0.0000000000   -0.1084622687    0.1084622687
C282       C   -0.0295884948   -0.3749385984    0.3799168891
C283       C   -0.0277198330   -0.3504958538    0.3538806153
C284       C   -0.0044466544   -0.1781340046    0.2157653527
O285       O   -0.0117695545   -0.1488124173    0.2241172476
N286       N    0.0032670832   -0.1873292837    0.1832607669
C287       C    0.0106591401   -0.2198954484    0.1741847484
O288       O    0.0151605012   -0.2287161696    0.1443762844
C289       C    0.0026667460   -0.1615186485    0.1574793941
C290       C    0.0262907526   -0.1344383306    0.1585418550
C291       C    0.0249343070   -0.1082179815    0.1342476881
C292       C   -0.0235958379   -0.1355251974    0.1073484623
C293       C   -0.0220220714   -0.1620003941    0.1313011620
H294       H   -0.0507533382   -0.3378425793    0.3459105949
H295       H    0.0452927792   -0.1332222207    0.1783293431
C296       C    0.0000000000   -0.3915377313    0.3915377313
H297       H   -0.0539496709   -0.3807831995    0.3912463582
H298       H    0.0430207248   -0.0875589165    0.1356406387
H299       H   -0.0434254026   -0.1364723134    0.0884194419
O300       O   -0.0444002553   -0.1882504068    0.1282950875
H301       H   -0.0327015897   -0.2092829421    0.1264429771
H302       H   -0.0181845861   -0.1716807613    0.2842493534
H303       H   -0.0171624937   -0.2154466878    0.3284998280
H304       H    0.0288527446   -0.3314994004    0.2126501895
H305       H    0.0271552584   -0.2878780692    0.1682770044
O306       O    0.0643079664   -0.3531193901    0.3356667073
H307       H    0.0632304458   -0.3565243963    0.3117900354
H308       H    0.0549393168   -0.3948907830    0.3851030004
C217       C    0.0393055484    0.2262645214    0.2991220894
C218       C    0.0385070442    0.2006059306    0.2742505766
C219       C    0.0213958918    0.2051723414    0.2430421569
C220       C    0.0052330996    0.2366740852    0.2379005476
C221       C   -0.0116966190    0.2413871782    0.2067268708
C222       C   -0.0279437102    0.2729815462    0.2017230860
C223       C   -0.0274114399    0.2985175593    0.2267148903
C224       C   -0.0105356146    0.2938686127    0.2580309574
C225       C    0.0058887759    0.2624718884    0.2630415157
C226       C    0.0229172105    0.2577970248    0.2941582870
C227       C    0.0237285856    0.2854110681    0.3207092882
O228       O    0.0412413911    0.2808702110    0.3463869959
N229       N    0.0059307579    0.3145331495    0.3149738692
C230       C   -0.0104199382    0.3210050022    0.2851156398
O231       O   -0.0254014669    0.3478923957    0.2791465724
C232       C    0.0044002842    0.3397902323    0.3412597506
C233       C    0.0338365455    0.3575956742    0.3518216279
C234       C    0.0315498384    0.3834824806    0.3763626726
C235       C   -0.0000000000    0.1084622687    0.1084622687
C236       C   -0.0292792497    0.3735164618    0.3813390257
C237       C   -0.0271583953    0.3479139503    0.3564625188
C238       C   -0.0122352304    0.2139516058    0.1799477516
O239       O   -0.0272227951    0.2198777833    0.1530518815
N240       N    0.0039804372    0.1840487575    0.1865412932
C241       C    0.0198770302    0.1775048100    0.2165753868
O242       O    0.0323764095    0.1495447607    0.2235476933
C243       C    0.0034016151    0.1581391799    0.1608588627
C244       C    0.0199560264    0.1635700610    0.1294101246
C245       C    0.0182530624    0.1389432581    0.1035224115
C246       C   -0.0165203305    0.1029868103    0.1398868495
C247       C   -0.0144834099    0.1273320839    0.1659694723
H248       H   -0.0501227748    0.3349427850    0.3488103892
H249       H    0.0336185273    0.1869090175    0.1246425463
C250       C    0.0000000000    0.3915377313    0.3915377313
H251       H   -0.0536802570    0.3795442362    0.3924853215
H252       H    0.0308195351    0.1436689608    0.0795305944
H253       H   -0.0312116484    0.0803044882    0.1445872671
O254       O   -0.0296130479    0.1202479512    0.1962975431
H255       H   -0.0135934207    0.1214095271    0.2143163921
H256       H   -0.0412573919    0.2777864923    0.1781436224
H257       H   -0.0403854448    0.3222428973    0.2217036185
H258       H    0.0527669415    0.2215243339    0.3226252560
H259       H    0.0513075824    0.1768079191    0.2793471544
O260       O    0.0650448490    0.3497306619    0.3390554354
H261       H    0.0698125145    0.3262552030    0.3420592286
H262       H    0.0544807190    0.3969997529    0.3829940306
loop_
_geom_bond_atom_site_label_1
_geom_bond_atom_site_label_2
_geom_bond_distance
_geom_bond_site_symmetry_2
_ccdc_geom_bond_type
