data_fcu_v1-12c_Zr_1_Ch_dummy_1-diedgenobond
_audit_creation_date              2024-12-07
_audit_creation_method            'tobacco_3.0'
_symmetry_space_group_name_H-M    'P1'
_symmetry_Int_Tables_number       1
_symmetry_cell_setting            triclinic
loop_
_symmetry_equiv_pos_as_xyz
  x,y,z
_cell_length_a                    39.353265381340925
_cell_length_b                    39.353265381340925
_cell_length_c                    39.353265381340925
_cell_angle_alpha                 90.0
_cell_angle_beta                  90.0
_cell_angle_gamma                 90.0
loop_
_atom_site_label
_atom_site_type_symbol
_atom_site_fract_x
_atom_site_fract_y
_atom_site_fract_z
D55        D   -0.0204733942   -0.0021741671    0.0752383860
D56        D   -0.0102874120   -0.0313568542    0.0569070105
D57        D    0.0166871207   -0.0127086767    0.0422086143
D58        D    0.0065011385    0.0164740104    0.0605399899
D59        D   -0.0046560949   -0.0215623596    0.0796681075
D60        D    0.0223184378   -0.0029141821    0.0649697114
D61        D    0.0008698215    0.0066795159    0.0377788929
D62        D   -0.0261047113   -0.0119686617    0.0524772890
Zr9       Zr    0.0000000000   -0.0000000000    0.0630697345
D63        D   -0.0021741671   -0.0752383860    0.0204733942
D64        D   -0.0313568542   -0.0569070105    0.0102874120
D65        D   -0.0127086767   -0.0422086143   -0.0166871207
D66        D    0.0164740104   -0.0605399899   -0.0065011385
D67        D   -0.0215623596   -0.0796681075    0.0046560949
D68        D   -0.0029141821   -0.0649697114   -0.0223184378
D69        D    0.0066795159   -0.0377788929   -0.0008698215
D70        D   -0.0119686617   -0.0524772890    0.0261047113
Zr36      Zr    0.0000000000   -0.0630697345   -0.0000000000
D71        D   -0.0033872035    0.0767717043    0.0222928394
D72        D    0.0013856134    0.0809340568   -0.0130811316
D73        D    0.0128131596    0.0469517323   -0.0155378766
D74        D    0.0080403427    0.0427893798    0.0198360945
D75        D   -0.0178683245    0.0733916712    0.0016874056
D76        D   -0.0064407782    0.0394093467   -0.0007693393
D77        D    0.0272942805    0.0503317654    0.0050675572
D78        D    0.0158667344    0.0843140899    0.0075243022
Zr37      Zr    0.0000000000    0.0630697345    0.0000000000
D79        D   -0.0752383860   -0.0021741671    0.0204733942
D80        D   -0.0774562090   -0.0058654097   -0.0152040325
D81        D   -0.0422086143   -0.0127086767   -0.0166871207
D82        D   -0.0399907912   -0.0090174340    0.0189903060
D83        D   -0.0796681075   -0.0215623596    0.0046560949
D84        D   -0.0444205127   -0.0284056266    0.0031730067
D85        D   -0.0377788929    0.0066795159   -0.0008698215
D86        D   -0.0730264877    0.0135227828    0.0006132668
Zr38      Zr   -0.0630697345    0.0000000000    0.0000000000
D87        D    0.0767717043    0.0222928394    0.0033872035
D88        D    0.0482226597    0.0049724213    0.0166679396
D89        D    0.0469517323   -0.0155378766   -0.0128131596
D90        D    0.0755007769    0.0017825415   -0.0260938958
D91        D    0.0733916712    0.0016874056    0.0178683245
D92        D    0.0721207438   -0.0188228924   -0.0116127747
D93        D    0.0503317654    0.0050675572   -0.0272942805
D94        D    0.0516026928    0.0255778552    0.0021868187
Zr39      Zr    0.0630697345   -0.0000000000   -0.0000000000
D100       D    0.0007693393   -0.0064407782   -0.0394093467
D101       D   -0.0050675572    0.0272942805   -0.0503317654
D102       D   -0.0075243022    0.0158667344   -0.0843140899
D95        D   -0.0222928394   -0.0033872035   -0.0767717043
D96        D    0.0130811316    0.0013856134   -0.0809340568
D97        D    0.0155378766    0.0128131596   -0.0469517323
D98        D   -0.0198360945    0.0080403427   -0.0427893798
D99        D   -0.0016874056   -0.0178683245   -0.0733916712
Zr40      Zr    0.0000000000    0.0000000000   -0.0630697345
H16        H   -0.0473404172   -0.0473404172    0.0473404172
O17        O   -0.0295070813   -0.0295070813    0.0295070813
H18        H    0.0473404172    0.0473404172    0.0473404172
O19        O    0.0295070813    0.0295070813    0.0295070813
H51        H   -0.0473404172    0.0473404172   -0.0473404172
O52        O   -0.0295070813    0.0295070813   -0.0295070813
H53        H    0.0473404172   -0.0473404172   -0.0473404172
O54        O    0.0295070813   -0.0295070813   -0.0295070813
O10        O    0.0295070813   -0.0295070813    0.0295070813
O11        O   -0.0295070813    0.0295070813    0.0295070813
O41        O    0.0295070813    0.0295070813   -0.0295070813
O42        O   -0.0295070813   -0.0295070813   -0.0295070813
O1         O    0.0000000000    0.0896850608    0.0501305287
O8         O    0.0000000000    0.0501305287    0.0896850608
C12        C    0.0000000000    0.0807912627    0.0807912627
O2         O   -0.0000000000   -0.0896850608    0.0501305287
O7         O    0.0000000000   -0.0501305287    0.0896850608
C13        C   -0.0000000000   -0.0807912627    0.0807912627
O3         O   -0.0501305287   -0.0000000000    0.0896850608
O6         O   -0.0896850608    0.0000000000    0.0501305287
C14        C   -0.0807912627   -0.0000000000    0.0807912627
O4         O    0.0501305287   -0.0000000000    0.0896850608
O5         O    0.0896850608   -0.0000000000    0.0501305287
C15        C    0.0807912627   -0.0000000000    0.0807912627
O20        O   -0.0000000000   -0.0896850608   -0.0501305287
O34        O    0.0000000000   -0.0501305287   -0.0896850608
C43        C   -0.0000000000   -0.0807912627   -0.0807912627
O21        O    0.0000000000    0.0896850608   -0.0501305287
O35        O    0.0000000000    0.0501305287   -0.0896850608
C44        C    0.0000000000    0.0807912627   -0.0807912627
O22        O   -0.0896850608   -0.0501305287   -0.0000000000
O30        O   -0.0501305287   -0.0896850608   -0.0000000000
C45        C   -0.0807912627   -0.0807912627   -0.0000000000
O23        O    0.0896850608   -0.0501305287   -0.0000000000
O33        O    0.0501305287   -0.0896850608   -0.0000000000
C46        C    0.0807912627   -0.0807912627   -0.0000000000
O24        O    0.0896850608    0.0501305287    0.0000000000
O32        O    0.0501305287    0.0896850608    0.0000000000
C47        C    0.0807912627    0.0807912627    0.0000000000
O25        O   -0.0896850608    0.0501305287    0.0000000000
O31        O   -0.0501305287    0.0896850608    0.0000000000
C48        C   -0.0807912627    0.0807912627    0.0000000000
O26        O   -0.0501305287    0.0000000000   -0.0896850608
O28        O   -0.0896850608    0.0000000000   -0.0501305287
C49        C   -0.0807912627    0.0000000000   -0.0807912627
O27        O    0.0501305287    0.0000000000   -0.0896850608
O29        O    0.0896850608    0.0000000000   -0.0501305287
C50        C    0.0807912627    0.0000000000   -0.0807912627
D157       D   -0.0204733942    0.5021741671    0.4247616140
D158       D   -0.0102874120    0.5313568542    0.4430929895
D159       D    0.0166871207    0.5127086767    0.4577913857
D160       D    0.0065011385    0.4835259896    0.4394600101
D161       D   -0.0046560949    0.5215623596    0.4203318925
D162       D    0.0223184378    0.5029141821    0.4350302886
D163       D    0.0008698215    0.4933204841    0.4622211071
D164       D   -0.0261047113    0.5119686617    0.4475227110
Zr111     Zr    0.0000000000    0.5000000000    0.4369302655
D165       D   -0.0021741671    0.5752383860    0.4795266058
D166       D   -0.0313568542    0.5569070105    0.4897125880
D167       D   -0.0127086767    0.5422086143    0.5166871207
D168       D    0.0164740104    0.5605399899    0.5065011385
D169       D   -0.0215623596    0.5796681075    0.4953439051
D170       D   -0.0029141821    0.5649697114    0.5223184378
D171       D    0.0066795159    0.5377788929    0.5008698215
D172       D   -0.0119686617    0.5524772890    0.4738952887
Zr138     Zr    0.0000000000    0.5630697345    0.5000000000
D173       D   -0.0033872035    0.4232282957    0.4777071606
D174       D    0.0013856134    0.4190659432    0.5130811316
D175       D    0.0128131596    0.4530482677    0.5155378766
D176       D    0.0080403427    0.4572106202    0.4801639055
D177       D   -0.0178683245    0.4266083288    0.4983125944
D178       D   -0.0064407782    0.4605906533    0.5007693393
D179       D    0.0272942805    0.4496682346    0.4949324428
D180       D    0.0158667344    0.4156859101    0.4924756978
Zr139     Zr    0.0000000000    0.4369302655    0.5000000000
D181       D   -0.0752383860    0.5021741671    0.4795266058
D182       D   -0.0774562090    0.5058654097    0.5152040325
D183       D   -0.0422086143    0.5127086767    0.5166871207
D184       D   -0.0399907912    0.5090174340    0.4810096940
D185       D   -0.0796681075    0.5215623596    0.4953439051
D186       D   -0.0444205127    0.5284056266    0.4968269933
D187       D   -0.0377788929    0.4933204841    0.5008698215
D188       D   -0.0730264877    0.4864772172    0.4993867332
Zr140     Zr   -0.0630697345    0.5000000000    0.5000000000
D189       D    0.0767717043    0.4777071606    0.4966127965
D190       D    0.0482226597    0.4950275787    0.4833320604
D191       D    0.0469517323    0.5155378766    0.5128131596
D192       D    0.0755007769    0.4982174585    0.5260938958
D193       D    0.0733916712    0.4983125944    0.4821316755
D194       D    0.0721207438    0.5188228924    0.5116127747
D195       D    0.0503317654    0.4949324428    0.5272942805
D196       D    0.0516026928    0.4744221448    0.4978131813
Zr141     Zr    0.0630697345    0.5000000000    0.5000000000
D202       D    0.0007693393    0.5064407782    0.5394093467
D203       D   -0.0050675572    0.4727057195    0.5503317654
D204       D   -0.0075243022    0.4841332656    0.5843140899
D197       D   -0.0222928394    0.5033872035    0.5767717043
D198       D    0.0130811316    0.4986143866    0.5809340568
D199       D    0.0155378766    0.4871868404    0.5469517323
D200       D   -0.0198360945    0.4919596573    0.5427893798
D201       D   -0.0016874056    0.5178683245    0.5733916712
Zr142     Zr    0.0000000000    0.5000000000    0.5630697345
H118       H   -0.0473404172    0.5473404172    0.4526595828
O119       O   -0.0295070813    0.5295070813    0.4704929187
H120       H    0.0473404172    0.4526595828    0.4526595828
O121       O    0.0295070813    0.4704929187    0.4704929187
H153       H   -0.0473404172    0.4526595828    0.5473404172
O154       O   -0.0295070813    0.4704929187    0.5295070813
H155       H    0.0473404172    0.5473404172    0.5473404172
O156       O    0.0295070813    0.5295070813    0.5295070813
O112       O    0.0295070813    0.5295070813    0.4704929187
O113       O   -0.0295070813    0.4704929187    0.4704929187
O143       O    0.0295070813    0.4704929187    0.5295070813
O144       O   -0.0295070813    0.5295070813    0.5295070813
O103       O    0.0000000000    0.4103149392    0.4498694713
O110       O    0.0000000000    0.4498694713    0.4103149392
C114       C    0.0000000000    0.4192087373    0.4192087373
O104       O    0.0000000000    0.5896850608    0.4498694713
O109       O    0.0000000000    0.5501305287    0.4103149392
C115       C    0.0000000000    0.5807912627    0.4192087373
O105       O   -0.0501305287    0.5000000000    0.4103149392
O108       O   -0.0896850608    0.5000000000    0.4498694713
C116       C   -0.0807912627    0.5000000000    0.4192087373
O106       O    0.0501305287    0.5000000000    0.4103149392
O107       O    0.0896850608    0.5000000000    0.4498694713
C117       C    0.0807912627    0.5000000000    0.4192087373
O122       O    0.0000000000    0.5896850608    0.5501305287
O136       O    0.0000000000    0.5501305287    0.5896850608
C145       C    0.0000000000    0.5807912627    0.5807912627
O123       O    0.0000000000    0.4103149392    0.5501305287
O137       O    0.0000000000    0.4498694713    0.5896850608
C146       C    0.0000000000    0.4192087373    0.5807912627
O124       O   -0.0896850608    0.5501305287    0.5000000000
O132       O   -0.0501305287    0.5896850608    0.5000000000
C147       C   -0.0807912627    0.5807912627    0.5000000000
O125       O    0.0896850608    0.5501305287    0.5000000000
O135       O    0.0501305287    0.5896850608    0.5000000000
C148       C    0.0807912627    0.5807912627    0.5000000000
O126       O    0.0896850608    0.4498694713    0.5000000000
O134       O    0.0501305287    0.4103149392    0.5000000000
C149       C    0.0807912627    0.4192087373    0.5000000000
O127       O   -0.0896850608    0.4498694713    0.5000000000
O133       O   -0.0501305287    0.4103149392    0.5000000000
C150       C   -0.0807912627    0.4192087373    0.5000000000
O128       O   -0.0501305287    0.5000000000    0.5896850608
O130       O   -0.0896850608    0.5000000000    0.5501305287
C151       C   -0.0807912627    0.5000000000    0.5807912627
O129       O    0.0501305287    0.5000000000    0.5896850608
O131       O    0.0896850608    0.5000000000    0.5501305287
C152       C    0.0807912627    0.5000000000    0.5807912627
D259       D    0.5752383860    1.0204733942    0.5021741671
D260       D    0.5569070105    1.0102874120    0.5313568542
D261       D    0.5422086143    0.9833128793    0.5127086767
D262       D    0.5605399899    0.9934988615    0.4835259896
D263       D    0.5796681075    1.0046560949    0.5215623596
D264       D    0.5649697114    0.9776815622    0.5029141821
D265       D    0.5377788929    0.9991301785    0.4933204841
D266       D    0.5524772890    1.0261047113    0.5119686617
Zr213     Zr    0.5630697345    1.0000000000    0.5000000000
D267       D    0.5204733942    1.0021741671    0.5752383860
D268       D    0.5102874120    1.0313568542    0.5569070105
D269       D    0.4833128793    1.0127086767    0.5422086143
D270       D    0.4934988615    0.9835259896    0.5605399899
D271       D    0.5046560949    1.0215623596    0.5796681075
D272       D    0.4776815622    1.0029141821    0.5649697114
D273       D    0.4991301785    0.9933204841    0.5377788929
D274       D    0.5261047113    1.0119686617    0.5524772890
Zr240     Zr    0.5000000000    1.0000000000    0.5630697345
D275       D    0.5222928394    1.0033872035    0.4232282957
D276       D    0.4869188684    0.9986143866    0.4190659432
D277       D    0.4844621234    0.9871868404    0.4530482677
D278       D    0.5198360945    0.9919596573    0.4572106202
D279       D    0.5016874056    1.0178683245    0.4266083288
D280       D    0.4992306607    1.0064407782    0.4605906533
D281       D    0.5050675572    0.9727057195    0.4496682346
D282       D    0.5075243022    0.9841332656    0.4156859101
Zr241     Zr    0.5000000000    1.0000000000    0.4369302655
D283       D    0.5204733942    1.0752383860    0.5021741671
D284       D    0.4847959675    1.0774562090    0.5058654097
D285       D    0.4833128793    1.0422086143    0.5127086767
D286       D    0.5189903060    1.0399907912    0.5090174340
D287       D    0.5046560949    1.0796681075    0.5215623596
D288       D    0.5031730067    1.0444205127    0.5284056266
D289       D    0.4991301785    1.0377788929    0.4933204841
D290       D    0.5006132668    1.0730264877    0.4864772172
Zr242     Zr    0.5000000000    1.0630697345    0.5000000000
D291       D    0.5033872035    0.9232282957    0.4777071606
D292       D    0.5166679396    0.9517773403    0.4950275787
D293       D    0.4871868404    0.9530482677    0.5155378766
D294       D    0.4739061042    0.9244992231    0.4982174585
D295       D    0.5178683245    0.9266083288    0.4983125944
D296       D    0.4883872253    0.9278792562    0.5188228924
D297       D    0.4727057195    0.9496682346    0.4949324428
D298       D    0.5021868187    0.9483973072    0.4744221448
Zr243     Zr    0.5000000000    0.9369302655    0.5000000000
D304       D    0.4605906533    0.9992306607    0.5064407782
D305       D    0.4496682346    1.0050675572    0.4727057195
D306       D    0.4156859101    1.0075243022    0.4841332656
D299       D    0.4232282957    1.0222928394    0.5033872035
D300       D    0.4190659432    0.9869188684    0.4986143866
D301       D    0.4530482677    0.9844621234    0.4871868404
D302       D    0.4572106202    1.0198360945    0.4919596573
D303       D    0.4266083288    1.0016874056    0.5178683245
Zr244     Zr    0.4369302655    1.0000000000    0.5000000000
H220       H    0.5473404172    1.0473404172    0.5473404172
O221       O    0.5295070813    1.0295070813    0.5295070813
H222       H    0.5473404172    0.9526595828    0.4526595828
O223       O    0.5295070813    0.9704929187    0.4704929187
H255       H    0.4526595828    1.0473404172    0.4526595828
O256       O    0.4704929187    1.0295070813    0.4704929187
H257       H    0.4526595828    0.9526595828    0.5473404172
O258       O    0.4704929187    0.9704929187    0.5295070813
O214       O    0.5295070813    0.9704929187    0.5295070813
O215       O    0.5295070813    1.0295070813    0.4704929187
O245       O    0.4704929187    0.9704929187    0.4704929187
O246       O    0.4704929187    1.0295070813    0.5295070813
O205       O    0.5501305287    1.0000000000    0.4103149392
O212       O    0.5896850608    1.0000000000    0.4498694713
C216       C    0.5807912627    1.0000000000    0.4192087373
O206       O    0.5501305287    1.0000000000    0.5896850608
O211       O    0.5896850608    1.0000000000    0.5501305287
C217       C    0.5807912627    1.0000000000    0.5807912627
O207       O    0.5896850608    1.0501305287    0.5000000000
O210       O    0.5501305287    1.0896850608    0.5000000000
C218       C    0.5807912627    1.0807912627    0.5000000000
O208       O    0.5896850608    0.9498694713    0.5000000000
O209       O    0.5501305287    0.9103149392    0.5000000000
C219       C    0.5807912627    0.9192087373    0.5000000000
O224       O    0.4498694713    1.0000000000    0.5896850608
O238       O    0.4103149392    1.0000000000    0.5501305287
C247       C    0.4192087373    1.0000000000    0.5807912627
O225       O    0.4498694713    1.0000000000    0.4103149392
O239       O    0.4103149392    1.0000000000    0.4498694713
C248       C    0.4192087373    1.0000000000    0.4192087373
O226       O    0.5000000000    1.0896850608    0.5501305287
O234       O    0.5000000000    1.0501305287    0.5896850608
C249       C    0.5000000000    1.0807912627    0.5807912627
O227       O    0.5000000000    0.9103149392    0.5501305287
O237       O    0.5000000000    0.9498694713    0.5896850608
C250       C    0.5000000000    0.9192087373    0.5807912627
O228       O    0.5000000000    0.9103149392    0.4498694713
O236       O    0.5000000000    0.9498694713    0.4103149392
C251       C    0.5000000000    0.9192087373    0.4192087373
O229       O    0.5000000000    1.0896850608    0.4498694713
O235       O    0.5000000000    1.0501305287    0.4103149392
C252       C    0.5000000000    1.0807912627    0.4192087373
O230       O    0.4103149392    1.0501305287    0.5000000000
O232       O    0.4498694713    1.0896850608    0.5000000000
C253       C    0.4192087373    1.0807912627    0.5000000000
O231       O    0.4103149392    0.9498694713    0.5000000000
O233       O    0.4498694713    0.9103149392    0.5000000000
C254       C    0.4192087373    0.9192087373    0.5000000000
D361       D    0.4247616140    0.5021741671    1.0204733942
D362       D    0.4430929895    0.5313568542    1.0102874120
D363       D    0.4577913857    0.5127086767    0.9833128793
D364       D    0.4394600101    0.4835259896    0.9934988615
D365       D    0.4203318925    0.5215623596    1.0046560949
D366       D    0.4350302886    0.5029141821    0.9776815622
D367       D    0.4622211071    0.4933204841    0.9991301785
D368       D    0.4475227110    0.5119686617    1.0261047113
Zr315     Zr    0.4369302655    0.5000000000    1.0000000000
D369       D    0.4795266058    0.5752383860    1.0021741671
D370       D    0.4897125880    0.5569070105    1.0313568542
D371       D    0.5166871207    0.5422086143    1.0127086767
D372       D    0.5065011385    0.5605399899    0.9835259896
D373       D    0.4953439051    0.5796681075    1.0215623596
D374       D    0.5223184378    0.5649697114    1.0029141821
D375       D    0.5008698215    0.5377788929    0.9933204841
D376       D    0.4738952887    0.5524772890    1.0119686617
Zr342     Zr    0.5000000000    0.5630697345    1.0000000000
D377       D    0.4777071606    0.4232282957    1.0033872035
D378       D    0.5130811316    0.4190659432    0.9986143866
D379       D    0.5155378766    0.4530482677    0.9871868404
D380       D    0.4801639055    0.4572106202    0.9919596573
D381       D    0.4983125944    0.4266083288    1.0178683245
D382       D    0.5007693393    0.4605906533    1.0064407782
D383       D    0.4949324428    0.4496682346    0.9727057195
D384       D    0.4924756978    0.4156859101    0.9841332656
Zr343     Zr    0.5000000000    0.4369302655    1.0000000000
D385       D    0.4795266058    0.5021741671    1.0752383860
D386       D    0.5152040325    0.5058654097    1.0774562090
D387       D    0.5166871207    0.5127086767    1.0422086143
D388       D    0.4810096940    0.5090174340    1.0399907912
D389       D    0.4953439051    0.5215623596    1.0796681075
D390       D    0.4968269933    0.5284056266    1.0444205127
D391       D    0.5008698215    0.4933204841    1.0377788929
D392       D    0.4993867332    0.4864772172    1.0730264877
Zr344     Zr    0.5000000000    0.5000000000    1.0630697345
D393       D    0.4966127965    0.4777071606    0.9232282957
D394       D    0.4833320604    0.4950275787    0.9517773403
D395       D    0.5128131596    0.5155378766    0.9530482677
D396       D    0.5260938958    0.4982174585    0.9244992231
D397       D    0.4821316755    0.4983125944    0.9266083288
D398       D    0.5116127747    0.5188228924    0.9278792562
D399       D    0.5272942805    0.4949324428    0.9496682346
D400       D    0.4978131813    0.4744221448    0.9483973072
Zr345     Zr    0.5000000000    0.5000000000    0.9369302655
D406       D    0.5394093467    0.5064407782    0.9992306607
D407       D    0.5503317654    0.4727057195    1.0050675572
D408       D    0.5843140899    0.4841332656    1.0075243022
D401       D    0.5767717043    0.5033872035    1.0222928394
D402       D    0.5809340568    0.4986143866    0.9869188684
D403       D    0.5469517323    0.4871868404    0.9844621234
D404       D    0.5427893798    0.4919596573    1.0198360945
D405       D    0.5733916712    0.5178683245    1.0016874056
Zr346     Zr    0.5630697345    0.5000000000    1.0000000000
H322       H    0.4526595828    0.5473404172    1.0473404172
O323       O    0.4704929187    0.5295070813    1.0295070813
H324       H    0.4526595828    0.4526595828    0.9526595828
O325       O    0.4704929187    0.4704929187    0.9704929187
H357       H    0.5473404172    0.4526595828    1.0473404172
O358       O    0.5295070813    0.4704929187    1.0295070813
H359       H    0.5473404172    0.5473404172    0.9526595828
O360       O    0.5295070813    0.5295070813    0.9704929187
O316       O    0.4704929187    0.5295070813    0.9704929187
O317       O    0.4704929187    0.4704929187    1.0295070813
O347       O    0.5295070813    0.4704929187    0.9704929187
O348       O    0.5295070813    0.5295070813    1.0295070813
O307       O    0.4498694713    0.4103149392    1.0000000000
O314       O    0.4103149392    0.4498694713    1.0000000000
C318       C    0.4192087373    0.4192087373    1.0000000000
O308       O    0.4498694713    0.5896850608    1.0000000000
O313       O    0.4103149392    0.5501305287    1.0000000000
C319       C    0.4192087373    0.5807912627    1.0000000000
O309       O    0.4103149392    0.5000000000    1.0501305287
O312       O    0.4498694713    0.5000000000    1.0896850608
C320       C    0.4192087373    0.5000000000    1.0807912627
O310       O    0.4103149392    0.5000000000    0.9498694713
O311       O    0.4498694713    0.5000000000    0.9103149392
C321       C    0.4192087373    0.5000000000    0.9192087373
O326       O    0.5501305287    0.5896850608    1.0000000000
O340       O    0.5896850608    0.5501305287    1.0000000000
C349       C    0.5807912627    0.5807912627    1.0000000000
O327       O    0.5501305287    0.4103149392    1.0000000000
O341       O    0.5896850608    0.4498694713    1.0000000000
C350       C    0.5807912627    0.4192087373    1.0000000000
O328       O    0.5000000000    0.5501305287    1.0896850608
O336       O    0.5000000000    0.5896850608    1.0501305287
C351       C    0.5000000000    0.5807912627    1.0807912627
O329       O    0.5000000000    0.5501305287    0.9103149392
O339       O    0.5000000000    0.5896850608    0.9498694713
C352       C    0.5000000000    0.5807912627    0.9192087373
O330       O    0.5000000000    0.4498694713    0.9103149392
O338       O    0.5000000000    0.4103149392    0.9498694713
C353       C    0.5000000000    0.4192087373    0.9192087373
O331       O    0.5000000000    0.4498694713    1.0896850608
O337       O    0.5000000000    0.4103149392    1.0501305287
C354       C    0.5000000000    0.4192087373    1.0807912627
O332       O    0.5896850608    0.5000000000    1.0501305287
O334       O    0.5501305287    0.5000000000    1.0896850608
C355       C    0.5807912627    0.5000000000    1.0807912627
O333       O    0.5896850608    0.5000000000    0.9498694713
O335       O    0.5501305287    0.5000000000    0.9103149392
C356       C    0.5807912627    0.5000000000    0.9192087373
C1467      C    0.5505045468    1.2660149643    0.2914015750
C1468      C    0.5510811694    1.2907255518    0.2655820590
C1469      C    0.5262266957    1.2914973348    0.2397118331
C1470      C    0.5007342268    1.2664274075    0.2410020403
C1471      C    0.4757960235    1.2672353101    0.2153493591
C1472      C    0.4503376440    1.2419911425    0.2166957747
C1473      C    0.4499394533    1.2170965828    0.2423290325
C1474      C    0.4749343326    1.2161483082    0.2680478783
C1475      C    0.5002532929    1.2414131758    0.2669265799
C1476      C    0.5251217434    1.2406831849    0.2926384968
C1477      C    0.5243497210    1.2141607253    0.3202810816
O1478      O    0.5452663980    1.2163549762    0.3436121832
N1479      N    0.5001611059    1.1894444098    0.3189514285
C1480      C    0.4748948479    1.1891188857    0.2952395277
O1481      O    0.4520492926    1.1676528993    0.2946918674
C1482      C    0.5009271618    1.1626041150    0.3436540979
C1483      C    0.4950602050    1.1691364747    0.3785537768
C1484      C    0.4941669147    1.1422890561    0.4021342092
C1485      C    0.5000000000    1.3915377313    0.1084622687
C1486      C    0.5062722569    1.1019745681    0.3568300557
C1487      C    0.5067316605    1.1287224727    0.3330989418
C1488      C    0.4762737182    1.2939702479    0.1878696053
O1489      O    0.4534526421    1.2934444405    0.1663741054
N1490      N    0.5016609608    1.3175502740    0.1881403246
C1491      C    0.5271140139    1.3175060620    0.2115862588
O1492      O    0.5514899343    1.3372785036    0.2103709576
C1493      C    0.5018362078    1.3429400014    0.1619380440
C1494      C    0.4753468773    1.3671831870    0.1601633726
C1495      C    0.4744987605    1.3912206639    0.1336863335
C1496      C    0.5265029005    1.3673532631    0.1102269228
C1497      C    0.5276793315    1.3436012051    0.1369027613
H1498      H    0.5110740526    1.1228685329    0.3066217071
H1499      H    0.4551324099    1.3671987850    0.1787503489
C1500      C    0.5000000000    1.1084622687    0.3915377313
H1501      H    0.5105093488    1.0762038804    0.3482334380
H1502      H    0.4538802005    1.4093725001    0.1325720553
H1503      H    0.5462318273    1.3663064993    0.0911982546
O1504      O    0.5545089963    1.3217588761    0.1383043704
H1505      H    0.5660187264    1.3237063930    0.1594323122
H1506      H    0.4306109853    1.2416072597    0.1975373744
H1507      H    0.4299552161    1.1982040521    0.2421505679
H1508      H    0.5701277496    1.2665072415    0.3106568314
H1509      H    0.5711814792    1.3094911499    0.2656462234
O1510      O    0.4908040846    1.2014504227    0.3902365201
H1511      H    0.5094007908    1.2153922339    0.3837066655
H1512      H    0.4887177782    1.1483367772    0.4283305606
C1421      C    0.4531938987    0.7689944495    0.2056189398
C1422      C    0.4525516544    0.7937423567    0.2314011362
C1423      C    0.4757790340    0.7930419557    0.2587435460
C1424      C    0.4997226238    0.7664583810    0.2589669861
C1425      C    0.5230489241    0.7657885073    0.2860974437
C1426      C    0.5469513378    0.7390329968    0.2862623710
C1427      C    0.5473931887    0.7141127165    0.2606548338
C1428      C    0.5240058889    0.7146458212    0.2334546087
C1429      C    0.5002573974    0.7414130501    0.2330735458
C1430      C    0.4770089716    0.7421563155    0.2058883726
C1431      C    0.4778465687    0.7155845721    0.1782950716
O1432      O    0.4585683406    0.7190095221    0.1537332709
N1433      N    0.5003526673    0.6894385446    0.1810544368
C1434      C    0.5240551414    0.6876136818    0.2062656762
O1435      O    0.5454696706    0.6647925275    0.2081685044
C1436      C    0.4994588228    0.6626490730    0.1563009441
C1437      C    0.5078362280    0.6687452948    0.1218374031
C1438      C    0.5085264901    0.6418493905    0.0983054564
C1439      C    0.5000000000    0.8915377313    0.3915377313
C1440      C    0.4912332770    0.6024350359    0.1427094765
C1441      C    0.4909599851    0.6292053744    0.1664181565
C1442      C    0.5225274928    0.7925540366    0.3135466060
O1443      O    0.5439171661    0.7906745719    0.3363957633
N1444      N    0.4986930767    0.8176411455    0.3117688038
C1445      C    0.4747656511    0.8191088791    0.2868109241
O1446      O    0.4516152164    0.8403364963    0.2865710497
C1447      C    0.4984688207    0.8430431050    0.3379588524
C1448      C    0.5262323242    0.8656251618    0.3413946526
C1449      C    0.5269281556    0.8896153657    0.3679189647
C1450      C    0.4722259540    0.8690151301    0.3881112101
C1451      C    0.4712326335    0.8453295063    0.3613689376
H1452      H    0.4846577010    0.6236773563    0.1925694695
H1453      H    0.5475081568    0.8643703980    0.3240780382
C1454      C    0.5000000000    0.6084622687    0.1084622687
H1455      H    0.4849114466    0.5769876443    0.1509827981
H1456      H    0.5485109115    0.9064750699    0.3703253749
H1457      H    0.4513438206    0.8692118075    0.4058964373
O1458      O    0.4432540123    0.8251653130    0.3582891927
H1459      H    0.4331977795    0.8277731427    0.3365009381
H1460      H    0.5654096987    0.7374799542    0.3065899311
H1461      H    0.5661369702    0.6940344002    0.2620190840
H1462      H    0.4348511517    0.7706491790    0.1852012310
H1463      H    0.4336774903    0.8137012863    0.2301436401
O1464      O    0.5147655826    0.7007167627    0.1104971399
H1465      H    0.4966915155    0.7157813701    0.1159041983
H1466      H    0.5159260524    0.6475037064    0.0725025101
C1375      C    0.4880026229    0.7823350284    0.8077216391
C1376      C    0.4889659840    0.8076982900    0.7825547972
C1377      C    0.4929010760    0.7996040448    0.7478185432
C1378      C    0.4957130458    0.7649216946    0.7394963275
C1379      C    0.4994504798    0.7567443117    0.7048583607
C1380      C    0.5023521253    0.7219401753    0.6966448075
C1381      C    0.5017037572    0.6966020643    0.7218345139
C1382      C    0.4980393170    0.7046940316    0.7565936017
C1383      C    0.4949186546    0.7393669562    0.7648803603
C1384      C    0.4910628123    0.7475425046    0.7994978165
C1385      C    0.4900003565    0.7202425585    0.8263629149
O1386      O    0.4839427415    0.7287343599    0.8559915669
N1387      N    0.4948402235    0.6873258790    0.8168328977
C1388      C    0.4979195375    0.6775971100    0.7837177520
O1389      O    0.5008779366    0.6477025721    0.7747415402
C1390      C    0.4965343893    0.6615282726    0.8425782554
C1391      C    0.4679312712    0.6534515650    0.8628688671
C1392      C    0.4695474923    0.6269105381    0.8867556912
C1393      C    0.5000000000    0.8915377313    0.6084622687
C1394      C    0.5286465939    0.6167738350    0.8716293226
C1395      C    0.5269818604    0.6430108981    0.8473873673
C1396      C    0.5001401418    0.7839739973    0.6778733547
O1397      O    0.5031148577    0.7750369286    0.6479665935
N1398      N    0.4972342755    0.8170820543    0.6876721050
C1399      C    0.4946394479    0.8267255890    0.7208057858
O1400      O    0.4945579803    0.8567944775    0.7298869315
C1401      C    0.4978236036    0.8427958230    0.6617938657
C1402      C    0.4713248197    0.8445816473    0.6375618328
C1403      C    0.4724463465    0.8687350006    0.6112006702
C1404      C    0.5264748112    0.8898062155    0.6326798753
C1405      C    0.5252060903    0.8660150434    0.6593165996
H1406      H    0.5491909075    0.6484099586    0.8321631327
H1407      H    0.4501948752    0.8270747045    0.6386262684
C1408      C    0.5000000000    0.6084622687    0.8915377313
H1409      H    0.5520757519    0.6027286254    0.8747581830
H1410      H    0.4521018694    0.8695259297    0.5927254850
H1411      H    0.5482943570    0.9063684774    0.6312602327
O1412      O    0.5506007584    0.8663063707    0.6828518650
H1413      H    0.5416364357    0.8693326792    0.7050585984
H1414      H    0.5052396235    0.7144195390    0.6703496537
H1415      H    0.5041759320    0.6702875915    0.7142341073
H1416      H    0.4849383590    0.7898452959    0.8339948859
H1417      H    0.4866989613    0.8340219712    0.7901770447
O1418      O    0.4384881685    0.6714831473    0.8602692447
H1419      H    0.4426325890    0.6950630764    0.8633775080
H1420      H    0.4468710378    0.6210381037    0.9010318871
C1329      C    0.5159733438    1.3070998985    0.7182867122
C1330      C    0.5169054358    1.2816366557    0.6932198515
C1331      C    0.5077029233    1.2477240930    0.7004904054
C1332      C    0.4974301206    1.2405685628    0.7340060700
C1333      C    0.4880528991    1.2068125162    0.7413015328
C1334      C    0.4778574967    1.1997395220    0.7749651102
C1335      C    0.4772253405    1.2251294701    0.8001029796
C1336      C    0.4866793952    1.2589832086    0.7929163615
C1337      C    0.4966589088    1.2661974163    0.7593159878
C1338      C    0.5059221013    1.2999692998    0.7519860121
C1339      C    0.5048290638    1.3271714627    0.7789488936
O1340      O    0.5107026008    1.3568288999    0.7704283070
N1341      N    0.4965613919    1.3181774676    0.8113295511
C1342      C    0.4865789040    1.2861418037    0.8199788384
O1343      O    0.4776714443    1.2780958744    0.8489430937
C1344      C    0.4980819952    1.3434201167    0.8376298662
C1345      C    0.4757879500    1.3716697573    0.8377475448
C1346      C    0.4764620597    1.3951984317    0.8646467214
C1347      C    0.5000000000    1.1084622687    0.6084622687
C1348      C    0.5225174543    1.3636285596    0.8912269280
C1349      C    0.5216028357    1.3397899497    0.8645865195
C1350      C    0.4887512044    1.1796104672    0.7142888902
O1351      O    0.4798665666    1.1506278682    0.7223017966
N1352      N    0.4989097183    1.1882750868    0.6823149638
C1353      C    0.5093116258    1.2201879378    0.6738922590
O1354      O    0.5209110120    1.2274679724    0.6456244817
C1355      C    0.4993950508    1.1622287977    0.6567692449
C1356      C    0.4686745979    1.1469444063    0.6460357793
C1357      C    0.4690332442    1.1203517820    0.6221138876
C1358      C    0.5307106072    1.1237375223    0.6191361375
C1359      C    0.5304086470    1.1506198614    0.6426816948
H1360      H    0.5388113083    1.3184018121    0.8653513621
H1361      H    0.4446124384    1.1550757438    0.6564758200
C1362      C    0.5000000000    1.3915377313    0.8915377313
H1363      H    0.5405069078    1.3602805968    0.9117489609
H1364      H    0.4453130571    1.1087671957    0.6144323595
H1365      H    0.5550104776    1.1151059695    0.6097857858
O1366      O    0.5605395300    1.1654723351    0.6510731592
H1367      H    0.5599348108    1.1891754246    0.6465504946
H1368      H    0.4703929709    1.1741600996    0.7817700151
H1369      H    0.4693546758    1.2183732507    0.8255732651
H1370      H    0.5232679639    1.3327116245    0.7114379654
H1371      H    0.5249713798    1.2883520986    0.6678029750
O1372      O    0.4536917690    1.3771295753    0.8116565221
H1373      H    0.4654072596    1.3777577497    0.7905566820
H1374      H    0.4584059475    1.4158441708    0.8641496127
C1283      C   -0.2262645214    0.2008779106    0.5393055484
C1284      C   -0.2006059306    0.2257494234    0.5385070442
C1285      C   -0.2051723414    0.2569578431    0.5213958918
C1286      C   -0.2366740852    0.2620994524    0.5052330996
C1287      C   -0.2413871782    0.2932731292    0.4883033810
C1288      C   -0.2729815462    0.2982769140    0.4720562898
C1289      C   -0.2985175593    0.2732851097    0.4725885601
C1290      C   -0.2938686127    0.2419690426    0.4894643854
C1291      C   -0.2624718884    0.2369584843    0.5058887759
C1292      C   -0.2577970248    0.2058417130    0.5229172105
C1293      C   -0.2854110681    0.1792907118    0.5237285856
O1294      O   -0.2808702110    0.1536130041    0.5412413911
N1295      N   -0.3145331495    0.1850261308    0.5059307579
C1296      C   -0.3210050022    0.2148843602    0.4895800618
O1297      O   -0.3478923957    0.2208534276    0.4745985331
C1298      C   -0.3397902323    0.1587402494    0.5044002842
C1299      C   -0.3575956742    0.1481783721    0.5338365455
C1300      C   -0.3834824806    0.1236373274    0.5315498384
C1301      C   -0.1084622687    0.3915377313    0.5000000000
C1302      C   -0.3735164618    0.1186609743    0.4707207503
C1303      C   -0.3479139503    0.1435374812    0.4728416047
C1304      C   -0.2139516058    0.3200522484    0.4877647696
O1305      O   -0.2198777833    0.3469481185    0.4727772049
N1306      N   -0.1840487575    0.3134587068    0.5039804372
C1307      C   -0.1775048100    0.2834246132    0.5198770302
O1308      O   -0.1495447607    0.2764523067    0.5323764095
C1309      C   -0.1581391799    0.3391411373    0.5034016151
C1310      C   -0.1635700610    0.3705898754    0.5199560264
C1311      C   -0.1389432581    0.3964775885    0.5182530624
C1312      C   -0.1029868103    0.3601131505    0.4834796695
C1313      C   -0.1273320839    0.3340305277    0.4855165901
H1314      H   -0.3349427850    0.1511896108    0.4498772252
H1315      H   -0.1869090175    0.3753574537    0.5336185273
C1316      C   -0.3915377313    0.1084622687    0.5000000000
H1317      H   -0.3795442362    0.1075146785    0.4463197430
H1318      H   -0.1436689608    0.4204694056    0.5308195351
H1319      H   -0.0803044882    0.3554127329    0.4687883516
O1320      O   -0.1202479512    0.3037024569    0.4703869521
H1321      H   -0.1214095271    0.2856836079    0.4864065793
H1322      H   -0.2777864923    0.3218563776    0.4587426081
H1323      H   -0.3222428973    0.2782963815    0.4596145552
H1324      H   -0.2215243339    0.1773747440    0.5527669415
H1325      H   -0.1768079191    0.2206528456    0.5513075824
O1326      O   -0.3497306619    0.1609445646    0.5650448490
H1327      H   -0.3262552030    0.1579407714    0.5698125145
H1328      H   -0.3969997529    0.1170059694    0.5544807190
C1237      C   -0.2977807551    0.7276058556    0.5416746983
C1238      C   -0.2729352486    0.7019212586    0.5409031295
C1239      C   -0.2423129862    0.7059015122    0.5226262664
C1240      C   -0.2377266109    0.7368480220    0.5052679671
C1241      C   -0.2071331455    0.7409809035    0.4871686325
C1242      C   -0.2026873611    0.7720172711    0.4697276232
C1243      C   -0.2276618407    0.7975706089    0.4702412913
C1244      C   -0.2583994378    0.7935001323    0.4882893823
C1245      C   -0.2628462302    0.7626671739    0.5059011769
C1246      C   -0.2933795738    0.7585757381    0.5240959693
C1247      C   -0.3199042940    0.7862160624    0.5248712579
O1248      O   -0.3449855931    0.7822716139    0.5433653698
N1249      N   -0.3147772644    0.8147297543    0.5059388448
C1250      C   -0.2854803186    0.8206403234    0.4884032198
O1251      O   -0.2800252976    0.8470136705    0.4723502696
C1252      C   -0.3411132545    0.8399367284    0.5044441126
C1253      C   -0.3507044910    0.8587128112    0.5336082583
C1254      C   -0.3753219849    0.8845231682    0.5312795020
C1255      C   -0.1084622687    0.6084622687    0.5000000000
C1256      C   -0.3823041505    0.8725513371    0.4710118639
C1257      C   -0.3573570255    0.8470194437    0.4731544297
C1258      C   -0.1803714993    0.7135278580    0.4866523465
O1259      O   -0.1539898567    0.7189398081    0.4705945064
N1260      N   -0.1864081369    0.6841819138    0.5040585974
C1261      C   -0.2158958459    0.6781843509    0.5211488271
O1262      O   -0.2224351497    0.6506573043    0.5347910817
C1263      C   -0.1607447462    0.6582532964    0.5034879308
C1264      C   -0.1287681287    0.6642120569    0.5188031273
C1265      C   -0.1029374911    0.6395281785    0.5170602834
C1266      C   -0.1404135892    0.6024600706    0.4847195230
C1267      C   -0.1664278183    0.6268737379    0.4868117318
H1268      H   -0.3504623128    0.8332908614    0.4503913475
H1269      H   -0.1235636090    0.6879879548    0.5315200559
C1270      C   -0.3915377313    0.8915377313    0.5000000000
H1271      H   -0.3942555388    0.8777740188    0.4468070909
H1272      H   -0.0785453563    0.6446541990    0.5286621566
H1273      H   -0.1455854086    0.5793063467    0.4709509415
O1274      O   -0.1972363031    0.6193091912    0.4729373793
H1275      H   -0.2147155091    0.6210104101    0.4894975678
H1276      H   -0.1795642702    0.7763658445    0.4554887571
H1277      H   -0.2230958884    0.8208506274    0.4563300684
H1278      H   -0.3208227358    0.7233268542    0.5560564436
H1279      H   -0.2775921637    0.6785629098    0.5546463067
O1280      O   -0.3369077021    0.8518783953    0.5646200571
H1281      H   -0.3397391197    0.8285753119    0.5702592022
H1282      H   -0.3811978944    0.8987958891    0.5539572438
C1191      C    0.2095134748    0.2349000856    0.4484819196
C1192      C    0.2353431544    0.2101996615    0.4479253715
C1193      C    0.2607635707    0.2089780690    0.4732219966
C1194      C    0.2590123234    0.2335869562    0.4991327602
C1195      C    0.2842137341    0.2323277831    0.5245085384
C1196      C    0.2824068709    0.2571115031    0.5503873404
C1197      C    0.2567665902    0.2819990399    0.5507721542
C1198      C    0.2315000195    0.2833995896    0.5253410491
C1199      C    0.2330793046    0.2585927087    0.4995972127
C1200      C    0.2078174291    0.2597727410    0.4742887049
C1201      C    0.1801611781    0.2862815344    0.4750403892
O1202      O    0.1572093292    0.2844665362    0.4536726371
N1203      N    0.1810528116    0.3105598302    0.4996883641
C1204      C    0.2043076880    0.3104283300    0.5253776115
O1205      O    0.2044420655    0.3314810336    0.5486106378
C1206      C    0.1563635378    0.3374135206    0.4989608936
C1207      C    0.1213652981    0.3307826003    0.5040828673
C1208      C    0.0977683188    0.3576134719    0.5050344645
C1209      C    0.3915377313    0.1084622687    0.5000000000
C1210      C    0.1432758122    0.3981312998    0.4944686120
C1211      C    0.1670156509    0.3713921200    0.4939552492
C1212      C    0.3117019357    0.2056012931    0.5240443559
O1213      O    0.3327845906    0.2057142555    0.5472530483
N1214      N    0.3118903806    0.1824804312    0.4982375111
C1215      C    0.2889047187    0.1829849156    0.4723729303
O1216      O    0.2905601943    0.1636526483    0.4476720246
C1217      C    0.3380956736    0.1570937162    0.4980768939
C1218      C    0.3393988656    0.1323790512    0.5241547227
C1219      C    0.3658603010    0.1083259706    0.5250463208
C1220      C    0.3902448078    0.1331184676    0.4739077321
C1221      C    0.3635905393    0.1568920955    0.4726792406
H1222      H    0.1935655669    0.3773187410    0.4901941231
H1223      H    0.3204523295    0.1320038933    0.5440290440
C1224      C    0.1084622687    0.3915377313    0.5000000000
H1225      H    0.1519428949    0.4239724526    0.4908492708
H1226      H    0.3666075201    0.0898070754    0.5453526738
H1227      H    0.4096240906    0.1345158459    0.4545452112
O1228      O    0.3626668398    0.1792123341    0.4462248178
H1229      H    0.3417490404    0.1774749596    0.4343049257
H1230      H    0.3012083242    0.2571384389    0.5704581490
H1231      H    0.2565835640    0.3005300798    0.5710920058
H1232      H    0.1906133429    0.2347629328    0.4285108524
H1233      H    0.2356425238    0.1917975973    0.4274938113
O1234      O    0.1096132975    0.2983993949    0.5075485250
H1235      H    0.1164778817    0.2847923134    0.4888248664
H1236      H    0.0714794224    0.3514732059    0.5099035412
C1145      C    0.2095134748    0.7650999144    0.5515180804
C1146      C    0.2353431544    0.7898003385    0.5520746285
C1147      C    0.2607635707    0.7910219310    0.5267780034
C1148      C    0.2590123234    0.7664130438    0.5008672398
C1149      C    0.2842137341    0.7676722169    0.4754914616
C1150      C    0.2824068709    0.7428884969    0.4496126596
C1151      C    0.2567665902    0.7180009601    0.4492278458
C1152      C    0.2315000195    0.7166004104    0.4746589509
C1153      C    0.2330793046    0.7414072913    0.5004027873
C1154      C    0.2078174291    0.7402272590    0.5257112951
C1155      C    0.1801611781    0.7137184656    0.5249596108
O1156      O    0.1572093292    0.7155334638    0.5463273629
N1157      N    0.1810528116    0.6894401698    0.5003116359
C1158      C    0.2043076880    0.6895716700    0.4746223885
O1159      O    0.2044420655    0.6685189664    0.4513893622
C1160      C    0.1563635378    0.6625864794    0.5010391064
C1161      C    0.1213652981    0.6692173997    0.4959171327
C1162      C    0.0977683188    0.6423865281    0.4949655355
C1163      C    0.3915377313    0.8915377313    0.5000000000
C1164      C    0.1432758122    0.6018687002    0.5055313880
C1165      C    0.1670156509    0.6286078800    0.5060447508
C1166      C    0.3117019357    0.7943987069    0.4759556441
O1167      O    0.3327845906    0.7942857445    0.4527469517
N1168      N    0.3118903806    0.8175195688    0.5017624889
C1169      C    0.2889047187    0.8170150844    0.5276270697
O1170      O    0.2905601943    0.8363473517    0.5523279754
C1171      C    0.3380956736    0.8429062838    0.5019231061
C1172      C    0.3393988656    0.8676209488    0.4758452773
C1173      C    0.3658603010    0.8916740294    0.4749536792
C1174      C    0.3902448078    0.8668815324    0.5260922679
C1175      C    0.3635905393    0.8431079045    0.5273207594
H1176      H    0.1935655669    0.6226812590    0.5098058769
H1177      H    0.3204523295    0.8679961067    0.4559709560
C1178      C    0.1084622687    0.6084622687    0.5000000000
H1179      H    0.1519428949    0.5760275474    0.5091507292
H1180      H    0.3666075201    0.9101929246    0.4546473262
H1181      H    0.4096240906    0.8654841541    0.5454547888
O1182      O    0.3626668398    0.8207876659    0.5537751822
H1183      H    0.3417490404    0.8225250404    0.5656950743
H1184      H    0.3012083242    0.7428615611    0.4295418510
H1185      H    0.2565835640    0.6994699202    0.4289079942
H1186      H    0.1906133429    0.7652370672    0.5714891476
H1187      H    0.2356425238    0.8082024027    0.5725061887
O1188      O    0.1096132975    0.7016006051    0.4924514750
H1189      H    0.1164778817    0.7152076866    0.5111751336
H1190      H    0.0714794224    0.6485267941    0.4900964588
C1099      C   -0.2650999144    0.5515180804    0.2904865252
C1100      C   -0.2898003385    0.5520746285    0.2646568456
C1101      C   -0.2910219310    0.5267780034    0.2392364293
C1102      C   -0.2664130438    0.5008672398    0.2409876766
C1103      C   -0.2676722169    0.4754914616    0.2157862659
C1104      C   -0.2428884969    0.4496126596    0.2175931291
C1105      C   -0.2180009601    0.4492278458    0.2432334098
C1106      C   -0.2166004104    0.4746589509    0.2684999805
C1107      C   -0.2414072913    0.5004027873    0.2669206954
C1108      C   -0.2402272590    0.5257112951    0.2921825709
C1109      C   -0.2137184656    0.5249596108    0.3198388219
O1110      O   -0.2155334638    0.5463273629    0.3427906708
N1111      N   -0.1894401698    0.5003116359    0.3189471884
C1112      C   -0.1895716700    0.4746223885    0.2956923120
O1113      O   -0.1685189664    0.4513893622    0.2955579345
C1114      C   -0.1625864794    0.5010391064    0.3436364622
C1115      C   -0.1692173997    0.4959171327    0.3786347019
C1116      C   -0.1423865281    0.4949655355    0.4022316812
C1117      C   -0.3915377313    0.5000000000    0.1084622687
C1118      C   -0.1018687002    0.5055313880    0.3567241878
C1119      C   -0.1286078800    0.5060447508    0.3329843491
C1120      C   -0.2943987069    0.4759556441    0.1882980643
O1121      O   -0.2942857445    0.4527469517    0.1672154094
N1122      N   -0.3175195688    0.5017624889    0.1881096194
C1123      C   -0.3170150844    0.5276270697    0.2110952813
O1124      O   -0.3363473517    0.5523279754    0.2094398057
C1125      C   -0.3429062838    0.5019231061    0.1619043264
C1126      C   -0.3676209488    0.4758452773    0.1606011344
C1127      C   -0.3916740294    0.4749536792    0.1341396990
C1128      C   -0.3668815324    0.5260922679    0.1097551922
C1129      C   -0.3431079045    0.5273207594    0.1364094607
H1130      H   -0.1226812590    0.5098058769    0.3064344331
H1131      H   -0.3679961067    0.4559709560    0.1795476705
C1132      C   -0.1084622687    0.5000000000    0.3915377313
H1133      H   -0.0760275474    0.5091507292    0.3480571051
H1134      H   -0.4101929246    0.4546473262    0.1333924799
H1135      H   -0.3654841541    0.5454547888    0.0903759094
O1136      O   -0.3207876659    0.5537751822    0.1373331602
H1137      H   -0.3225250404    0.5656950743    0.1582509596
H1138      H   -0.2428615611    0.4295418510    0.1987916758
H1139      H   -0.1994699202    0.4289079942    0.2434164360
H1140      H   -0.2652370672    0.5714891476    0.3093866571
H1141      H   -0.3082024027    0.5725061887    0.2643574762
O1142      O   -0.2016006051    0.4924514750    0.3903867025
H1143      H   -0.2152076866    0.5111751336    0.3835221183
H1144      H   -0.1485267941    0.4900964588    0.4285205776
C1053      C    0.2349000856    0.4484819196    0.2095134748
C1054      C    0.2101996615    0.4479253715    0.2353431544
C1055      C    0.2089780690    0.4732219966    0.2607635707
C1056      C    0.2335869562    0.4991327602    0.2590123234
C1057      C    0.2323277831    0.5245085384    0.2842137341
C1058      C    0.2571115031    0.5503873404    0.2824068709
C1059      C    0.2819990399    0.5507721542    0.2567665902
C1060      C    0.2833995896    0.5253410491    0.2315000195
C1061      C    0.2585927087    0.4995972127    0.2330793046
C1062      C    0.2597727410    0.4742887049    0.2078174291
C1063      C    0.2862815344    0.4750403892    0.1801611781
O1064      O    0.2844665362    0.4536726371    0.1572093292
N1065      N    0.3105598302    0.4996883641    0.1810528116
C1066      C    0.3104283300    0.5253776115    0.2043076880
O1067      O    0.3314810336    0.5486106378    0.2044420655
C1068      C    0.3374135206    0.4989608936    0.1563635378
C1069      C    0.3307826003    0.5040828673    0.1213652981
C1070      C    0.3576134719    0.5050344645    0.0977683188
C1071      C    0.1084622687    0.5000000000    0.3915377313
C1072      C    0.3981312998    0.4944686120    0.1432758122
C1073      C    0.3713921200    0.4939552492    0.1670156509
C1074      C    0.2056012931    0.5240443559    0.3117019357
O1075      O    0.2057142555    0.5472530483    0.3327845906
N1076      N    0.1824804312    0.4982375111    0.3118903806
C1077      C    0.1829849156    0.4723729303    0.2889047187
O1078      O    0.1636526483    0.4476720246    0.2905601943
C1079      C    0.1570937162    0.4980768939    0.3380956736
C1080      C    0.1323790512    0.5241547227    0.3393988656
C1081      C    0.1083259706    0.5250463208    0.3658603010
C1082      C    0.1331184676    0.4739077321    0.3902448078
C1083      C    0.1568920955    0.4726792406    0.3635905393
H1084      H    0.3773187410    0.4901941231    0.1935655669
H1085      H    0.1320038933    0.5440290440    0.3204523295
C1086      C    0.3915377313    0.5000000000    0.1084622687
H1087      H    0.4239724526    0.4908492708    0.1519428949
H1088      H    0.0898070754    0.5453526738    0.3666075201
H1089      H    0.1345158459    0.4545452112    0.4096240906
O1090      O    0.1792123341    0.4462248178    0.3626668398
H1091      H    0.1774749596    0.4343049257    0.3417490404
H1092      H    0.2571384389    0.5704581490    0.3012083242
H1093      H    0.3005300798    0.5710920058    0.2565835640
H1094      H    0.2347629328    0.4285108524    0.1906133429
H1095      H    0.1917975973    0.4274938113    0.2356425238
O1096      O    0.2983993949    0.5075485250    0.1096132975
H1097      H    0.2847923134    0.4888248664    0.1164778817
H1098      H    0.3514732059    0.5099035412    0.0714794224
C1007      C    0.2349000856    0.5515180804    0.7904865252
C1008      C    0.2101996615    0.5520746285    0.7646568456
C1009      C    0.2089780690    0.5267780034    0.7392364293
C1010      C    0.2335869562    0.5008672398    0.7409876766
C1011      C    0.2323277831    0.4754914616    0.7157862659
C1012      C    0.2571115031    0.4496126596    0.7175931291
C1013      C    0.2819990399    0.4492278458    0.7432334098
C1014      C    0.2833995896    0.4746589509    0.7684999805
C1015      C    0.2585927087    0.5004027873    0.7669206954
C1016      C    0.2597727410    0.5257112951    0.7921825709
C1017      C    0.2862815344    0.5249596108    0.8198388219
O1018      O    0.2844665362    0.5463273629    0.8427906708
N1019      N    0.3105598302    0.5003116359    0.8189471884
C1020      C    0.3104283300    0.4746223885    0.7956923120
O1021      O    0.3314810336    0.4513893622    0.7955579345
C1022      C    0.3374135206    0.5010391064    0.8436364622
C1023      C    0.3307826003    0.4959171327    0.8786347019
C1024      C    0.3576134719    0.4949655355    0.9022316812
C1025      C    0.1084622687    0.5000000000    0.6084622687
C1026      C    0.3981312998    0.5055313880    0.8567241878
C1027      C    0.3713921200    0.5060447508    0.8329843491
C1028      C    0.2056012931    0.4759556441    0.6882980643
O1029      O    0.2057142555    0.4527469517    0.6672154094
N1030      N    0.1824804312    0.5017624889    0.6881096194
C1031      C    0.1829849156    0.5276270697    0.7110952813
O1032      O    0.1636526483    0.5523279754    0.7094398057
C1033      C    0.1570937162    0.5019231061    0.6619043264
C1034      C    0.1323790512    0.4758452773    0.6606011344
C1035      C    0.1083259706    0.4749536792    0.6341396990
C1036      C    0.1331184676    0.5260922679    0.6097551922
C1037      C    0.1568920955    0.5273207594    0.6364094607
H1038      H    0.3773187410    0.5098058769    0.8064344331
H1039      H    0.1320038933    0.4559709560    0.6795476705
C1040      C    0.3915377313    0.5000000000    0.8915377313
H1041      H    0.4239724526    0.5091507292    0.8480571051
H1042      H    0.0898070754    0.4546473262    0.6333924799
H1043      H    0.1345158459    0.5454547888    0.5903759094
O1044      O    0.1792123341    0.5537751822    0.6373331602
H1045      H    0.1774749596    0.5656950743    0.6582509596
H1046      H    0.2571384389    0.4295418510    0.6987916758
H1047      H    0.3005300798    0.4289079942    0.7434164360
H1048      H    0.2347629328    0.5714891476    0.8093866571
H1049      H    0.1917975973    0.5725061887    0.7643574762
O1050      O    0.2983993949    0.4924514750    0.8903867025
H1051      H    0.2847923134    0.5111751336    0.8835221183
H1052      H    0.3514732059    0.4900964588    0.9285205776
C961       C   -0.2982362005    0.4591044752    0.7271504102
C962       C   -0.2733821317    0.4598852062    0.7014743754
C963       C   -0.2425603620    0.4777781435    0.7056541364
C964       C   -0.2377846686    0.4947423658    0.7367899643
C965       C   -0.2069936617    0.5124564301    0.7411203873
C966       C   -0.2023576437    0.5295039119    0.7723469885
C967       C   -0.2273378249    0.5289839209    0.7978946248
C968       C   -0.2582723932    0.5113219954    0.7936271769
C969       C   -0.2629113154    0.4941015164    0.7626020887
C970       C   -0.2936432598    0.4762908855    0.7583120521
C971       C   -0.3201766000    0.4755033849    0.7859437563
O972       O   -0.3454601424    0.4573317079    0.7817970646
N973       N   -0.3148427731    0.4940624020    0.8146642455
C974       C   -0.2853545334    0.5112075175    0.8207661086
O975       O   -0.2797243683    0.5269074142    0.8473145998
C976       C   -0.3411622060    0.4955694066    0.8398877768
C977       C   -0.3510757123    0.4663074915    0.8583415898
C978       C   -0.3756675902    0.4686228058    0.8841775630
C979       C   -0.1084622687    0.5000000000    0.6084622687
C980       C   -0.3819837878    0.5290921921    0.8728716998
C981       C   -0.3570602619    0.5269563378    0.8473162072
C982       C   -0.1802262782    0.5129802801    0.7136730791
O983       O   -0.1536694355    0.5286854497    0.7192602294
N984       N   -0.1864527719    0.4959664541    0.6841372787
C985       C   -0.2161268449    0.4792697436    0.6779533519
O986       O   -0.2228145641    0.4660049363    0.6502778899
C987       C   -0.1607830701    0.4965399769    0.6582149725
C988       C   -0.1289777034    0.4808081774    0.6640024822
C989       C   -0.1031279101    0.4825381593    0.6393377595
C990       C   -0.1402427204    0.5156972843    0.6026309394
C991       C   -0.1662799312    0.5136229860    0.6270216249
H992       H   -0.3499140329    0.5497920346    0.8338391413
H993       H   -0.1239152279    0.4677731123    0.6876363359
C994       C   -0.3915377313    0.5000000000    0.8915377313
H995       H   -0.3936677629    0.5533682443    0.8783617948
H996       H   -0.0788655521    0.4706120820    0.6443340032
H997       H   -0.1452609345    0.5297766505    0.5796308208
O998       O   -0.1969330327    0.5279189445    0.6196124616
H999       H   -0.2145939548    0.5115348188    0.6211319644
H1000      H   -0.1790791549    0.5434380042    0.7768509599
H1001      H   -0.2226201115    0.5425862809    0.8213264043
H1002      H   -0.3214351645    0.4450258589    0.7227144255
H1003      H   -0.2781889439    0.4464527389    0.6779661297
O1004      O   -0.3376214394    0.4352226643    0.8511646580
H1005      H   -0.3405134725    0.4298724961    0.8278009591
H1006      H   -0.3817941697    0.4458551981    0.8981996138
C915       C   -0.2728495898   -0.2017637995    0.0408955248
C916       C   -0.2985256246   -0.2266178683    0.0401147938
C917       C   -0.2943458636   -0.2574396380    0.0222218565
C918       C   -0.2632100357   -0.2622153314    0.0052576342
C919       C   -0.2588796127   -0.2930063383   -0.0124564301
C920       C   -0.2276530115   -0.2976423563   -0.0295039119
C921       C   -0.2021053752   -0.2726621751   -0.0289839209
C922       C   -0.2063728231   -0.2417276068   -0.0113219954
C923       C   -0.2373979113   -0.2370886846    0.0058984836
C924       C   -0.2416879479   -0.2063567402    0.0237091145
C925       C   -0.2140562437   -0.1798234000    0.0244966151
O926       O   -0.2182029354   -0.1545398576    0.0426682921
N927       N   -0.1853357545   -0.1851572269    0.0059375980
C928       C   -0.1792338914   -0.2146454666   -0.0112075175
O929       O   -0.1526854002   -0.2202756317   -0.0269074142
C930       C   -0.1601122232   -0.1588377940    0.0044305934
C931       C   -0.1416584102   -0.1489242877    0.0336925085
C932       C   -0.1158224370   -0.1243324098    0.0313771942
C933       C   -0.3915377313   -0.3915377313   -0.0000000000
C934       C   -0.1271283002   -0.1180162122   -0.0290921921
C935       C   -0.1526837928   -0.1429397381   -0.0269563378
C936       C   -0.2863269209   -0.3197737218   -0.0129802801
O937       O   -0.2807397706   -0.3463305645   -0.0286854497
N938       N   -0.3158627213   -0.3135472281    0.0040335459
C939       C   -0.3220466481   -0.2838731551    0.0207302564
O940       O   -0.3497221101   -0.2771854359    0.0339950637
C941       C   -0.3417850275   -0.3392169299    0.0034600231
C942       C   -0.3359975178   -0.3710222966    0.0191918226
C943       C   -0.3606622405   -0.3968720899    0.0174618407
C944       C   -0.3973690606   -0.3597572796   -0.0156972843
C945       C   -0.3729783751   -0.3337200688   -0.0136229860
H946       H   -0.1661608587   -0.1500859671   -0.0497920346
H947       H   -0.3123636641   -0.3760847721    0.0322268877
C948       C   -0.1084622687   -0.1084622687   -0.0000000000
H949       H   -0.1216382052   -0.1063322371   -0.0533682443
H950       H   -0.3556659968   -0.4211344479    0.0293879180
H951       H   -0.4203691792   -0.3547390655   -0.0297766505
O952       O   -0.3803875384   -0.3030669673   -0.0279189445
H953       H   -0.3788680356   -0.2854060452   -0.0115348188
H954       H   -0.2231490401   -0.3209208451   -0.0434380042
H955       H   -0.1786735957   -0.2773798885   -0.0425862809
H956       H   -0.2772855745   -0.1785648355    0.0549741411
H957       H   -0.3220338703   -0.2218110561    0.0535472611
O958       O   -0.1488353420   -0.1623785606    0.0647773357
H959       H   -0.1721990409   -0.1594865275    0.0701275039
H960       H   -0.1018003862   -0.1182058303    0.0541448019
C869       C   -0.2262645214    0.2991220894   -0.0393055484
C870       C   -0.2006059306    0.2742505766   -0.0385070442
C871       C   -0.2051723414    0.2430421569   -0.0213958918
C872       C   -0.2366740852    0.2379005476   -0.0052330996
C873       C   -0.2413871782    0.2067268708    0.0116966190
C874       C   -0.2729815462    0.2017230860    0.0279437102
C875       C   -0.2985175593    0.2267148903    0.0274114399
C876       C   -0.2938686127    0.2580309574    0.0105356146
C877       C   -0.2624718884    0.2630415157   -0.0058887759
C878       C   -0.2577970248    0.2941582870   -0.0229172105
C879       C   -0.2854110681    0.3207092882   -0.0237285856
O880       O   -0.2808702110    0.3463869959   -0.0412413911
N881       N   -0.3145331495    0.3149738692   -0.0059307579
C882       C   -0.3210050022    0.2851156398    0.0104199382
O883       O   -0.3478923957    0.2791465724    0.0254014669
C884       C   -0.3397902323    0.3412597506   -0.0044002842
C885       C   -0.3575956742    0.3518216279   -0.0338365455
C886       C   -0.3834824806    0.3763626726   -0.0315498384
C887       C   -0.1084622687    0.1084622687    0.0000000000
C888       C   -0.3735164618    0.3813390257    0.0292792497
C889       C   -0.3479139503    0.3564625188    0.0271583953
C890       C   -0.2139516058    0.1799477516    0.0122352304
O891       O   -0.2198777833    0.1530518815    0.0272227951
N892       N   -0.1840487575    0.1865412932   -0.0039804372
C893       C   -0.1775048100    0.2165753868   -0.0198770302
O894       O   -0.1495447607    0.2235476933   -0.0323764095
C895       C   -0.1581391799    0.1608588627   -0.0034016151
C896       C   -0.1635700610    0.1294101246   -0.0199560264
C897       C   -0.1389432581    0.1035224115   -0.0182530624
C898       C   -0.1029868103    0.1398868495    0.0165203305
C899       C   -0.1273320839    0.1659694723    0.0144834099
H900       H   -0.3349427850    0.3488103892    0.0501227748
H901       H   -0.1869090175    0.1246425463   -0.0336185273
C902       C   -0.3915377313    0.3915377313   -0.0000000000
H903       H   -0.3795442362    0.3924853215    0.0536802570
H904       H   -0.1436689608    0.0795305944   -0.0308195351
H905       H   -0.0803044882    0.1445872671    0.0312116484
O906       O   -0.1202479512    0.1962975431    0.0296130479
H907       H   -0.1214095271    0.2143163921    0.0135934207
H908       H   -0.2777864923    0.1781436224    0.0412573919
H909       H   -0.3222428973    0.2217036185    0.0403854448
H910       H   -0.2215243339    0.3226252560   -0.0527669415
H911       H   -0.1768079191    0.2793471544   -0.0513075824
O912       O   -0.3497306619    0.3390554354   -0.0650448490
H913       H   -0.3262552030    0.3420592286   -0.0698125145
H914       H   -0.3969997529    0.3829940306   -0.0544807190
C823       C    0.2008779106   -0.2737354786    0.0393055484
C824       C    0.2257494234   -0.2993940694    0.0385070442
C825       C    0.2569578431   -0.2948276586    0.0213958918
C826       C    0.2620994524   -0.2633259148    0.0052330996
C827       C    0.2932731292   -0.2586128218   -0.0116966190
C828       C    0.2982769140   -0.2270184538   -0.0279437102
C829       C    0.2732851097   -0.2014824407   -0.0274114399
C830       C    0.2419690426   -0.2061313873   -0.0105356146
C831       C    0.2369584843   -0.2375281116    0.0058887759
C832       C    0.2058417130   -0.2422029752    0.0229172105
C833       C    0.1792907118   -0.2145889319    0.0237285856
O834       O    0.1536130041   -0.2191297890    0.0412413911
N835       N    0.1850261308   -0.1854668505    0.0059307579
C836       C    0.2148843602   -0.1789949978   -0.0104199382
O837       O    0.2208534276   -0.1521076043   -0.0254014669
C838       C    0.1587402494   -0.1602097677    0.0044002842
C839       C    0.1481783721   -0.1424043258    0.0338365455
C840       C    0.1236373274   -0.1165175194    0.0315498384
C841       C    0.3915377313   -0.3915377313   -0.0000000000
C842       C    0.1186609743   -0.1264835382   -0.0292792497
C843       C    0.1435374812   -0.1520860497   -0.0271583953
C844       C    0.3200522484   -0.2860483942   -0.0122352304
O845       O    0.3469481185   -0.2801222167   -0.0272227951
N846       N    0.3134587068   -0.3159512425    0.0039804372
C847       C    0.2834246132   -0.3224951900    0.0198770302
O848       O    0.2764523067   -0.3504552393    0.0323764095
C849       C    0.3391411373   -0.3418608201    0.0034016151
C850       C    0.3705898754   -0.3364299390    0.0199560264
C851       C    0.3964775885   -0.3610567419    0.0182530624
C852       C    0.3601131505   -0.3970131897   -0.0165203305
C853       C    0.3340305277   -0.3726679161   -0.0144834099
H854       H    0.1511896108   -0.1650572150   -0.0501227748
H855       H    0.3753574537   -0.3130909825    0.0336185273
C856       C    0.1084622687   -0.1084622687   -0.0000000000
H857       H    0.1075146785   -0.1204557638   -0.0536802570
H858       H    0.4204694056   -0.3563310392    0.0308195351
H859       H    0.3554127329   -0.4196955118   -0.0312116484
O860       O    0.3037024569   -0.3797520488   -0.0296130479
H861       H    0.2856836079   -0.3785904729   -0.0135934207
H862       H    0.3218563776   -0.2222135077   -0.0412573919
H863       H    0.2782963815   -0.1777571027   -0.0403854448
H864       H    0.1773747440   -0.2784756661    0.0527669415
H865       H    0.2206528456   -0.3231920809    0.0513075824
O866       O    0.1609445646   -0.1502693381    0.0650448490
H867       H    0.1579407714   -0.1737447970    0.0698125145
H868       H    0.1170059694   -0.1030002471    0.0544807190
C777       C    0.2262645214    0.2991220894    0.0393055484
C778       C    0.2006059306    0.2742505766    0.0385070442
C779       C    0.2051723414    0.2430421569    0.0213958918
C780       C    0.2366740852    0.2379005476    0.0052330996
C781       C    0.2413871782    0.2067268708   -0.0116966190
C782       C    0.2729815462    0.2017230860   -0.0279437102
C783       C    0.2985175593    0.2267148903   -0.0274114399
C784       C    0.2938686127    0.2580309574   -0.0105356146
C785       C    0.2624718884    0.2630415157    0.0058887759
C786       C    0.2577970248    0.2941582870    0.0229172105
C787       C    0.2854110681    0.3207092882    0.0237285856
O788       O    0.2808702110    0.3463869959    0.0412413911
N789       N    0.3145331495    0.3149738692    0.0059307579
C790       C    0.3210050022    0.2851156398   -0.0104199382
O791       O    0.3478923957    0.2791465724   -0.0254014669
C792       C    0.3397902323    0.3412597506    0.0044002842
C793       C    0.3575956742    0.3518216279    0.0338365455
C794       C    0.3834824806    0.3763626726    0.0315498384
C795       C    0.1084622687    0.1084622687    0.0000000000
C796       C    0.3735164618    0.3813390257   -0.0292792497
C797       C    0.3479139503    0.3564625188   -0.0271583953
C798       C    0.2139516058    0.1799477516   -0.0122352304
O799       O    0.2198777833    0.1530518815   -0.0272227951
N800       N    0.1840487575    0.1865412932    0.0039804372
C801       C    0.1775048100    0.2165753868    0.0198770302
O802       O    0.1495447607    0.2235476933    0.0323764095
C803       C    0.1581391799    0.1608588627    0.0034016151
C804       C    0.1635700610    0.1294101246    0.0199560264
C805       C    0.1389432581    0.1035224115    0.0182530624
C806       C    0.1029868103    0.1398868495   -0.0165203305
C807       C    0.1273320839    0.1659694723   -0.0144834099
H808       H    0.3349427850    0.3488103892   -0.0501227748
H809       H    0.1869090175    0.1246425463    0.0336185273
C810       C    0.3915377313    0.3915377313   -0.0000000000
H811       H    0.3795442362    0.3924853215   -0.0536802570
H812       H    0.1436689608    0.0795305944    0.0308195351
H813       H    0.0803044882    0.1445872671   -0.0312116484
O814       O    0.1202479512    0.1962975431   -0.0296130479
H815       H    0.1214095271    0.2143163921   -0.0135934207
H816       H    0.2777864923    0.1781436224   -0.0412573919
H817       H    0.3222428973    0.2217036185   -0.0403854448
H818       H    0.2215243339    0.3226252560    0.0527669415
H819       H    0.1768079191    0.2793471544    0.0513075824
O820       O    0.3497306619    0.3390554354    0.0650448490
H821       H    0.3262552030    0.3420592286    0.0698125145
H822       H    0.3969997529    0.3829940306    0.0544807190
C731       C   -0.2095134748   -0.0515180804   -0.2650999144
C732       C   -0.2353431544   -0.0520746285   -0.2898003385
C733       C   -0.2607635707   -0.0267780034   -0.2910219310
C734       C   -0.2590123234   -0.0008672398   -0.2664130438
C735       C   -0.2842137341    0.0245085384   -0.2676722169
C736       C   -0.2824068709    0.0503873404   -0.2428884969
C737       C   -0.2567665902    0.0507721542   -0.2180009601
C738       C   -0.2315000195    0.0253410491   -0.2166004104
C739       C   -0.2330793046   -0.0004027873   -0.2414072913
C740       C   -0.2078174291   -0.0257112951   -0.2402272590
C741       C   -0.1801611781   -0.0249596108   -0.2137184656
O742       O   -0.1572093292   -0.0463273629   -0.2155334638
N743       N   -0.1810528116   -0.0003116359   -0.1894401698
C744       C   -0.2043076880    0.0253776115   -0.1895716700
O745       O   -0.2044420655    0.0486106378   -0.1685189664
C746       C   -0.1563635378   -0.0010391064   -0.1625864794
C747       C   -0.1213652981    0.0040828673   -0.1692173997
C748       C   -0.0977683188    0.0050344645   -0.1423865281
C749       C   -0.3915377313   -0.0000000000   -0.3915377313
C750       C   -0.1432758122   -0.0055313880   -0.1018687002
C751       C   -0.1670156509   -0.0060447508   -0.1286078800
C752       C   -0.3117019357    0.0240443559   -0.2943987069
O753       O   -0.3327845906    0.0472530483   -0.2942857445
N754       N   -0.3118903806   -0.0017624889   -0.3175195688
C755       C   -0.2889047187   -0.0276270697   -0.3170150844
O756       O   -0.2905601943   -0.0523279754   -0.3363473517
C757       C   -0.3380956736   -0.0019231061   -0.3429062838
C758       C   -0.3393988656    0.0241547227   -0.3676209488
C759       C   -0.3658603010    0.0250463208   -0.3916740294
C760       C   -0.3902448078   -0.0260922679   -0.3668815324
C761       C   -0.3635905393   -0.0273207594   -0.3431079045
H762       H   -0.1935655669   -0.0098058769   -0.1226812590
H763       H   -0.3204523295    0.0440290440   -0.3679961067
C764       C   -0.1084622687    0.0000000000   -0.1084622687
H765       H   -0.1519428949   -0.0091507292   -0.0760275474
H766       H   -0.3666075201    0.0453526738   -0.4101929246
H767       H   -0.4096240906   -0.0454547888   -0.3654841541
O768       O   -0.3626668398   -0.0537751822   -0.3207876659
H769       H   -0.3417490404   -0.0656950743   -0.3225250404
H770       H   -0.3012083242    0.0704581490   -0.2428615611
H771       H   -0.2565835640    0.0710920058   -0.1994699202
H772       H   -0.1906133429   -0.0714891476   -0.2652370672
H773       H   -0.2356425238   -0.0725061887   -0.3082024027
O774       O   -0.1096132975    0.0075485250   -0.2016006051
H775       H   -0.1164778817   -0.0111751336   -0.2152076866
H776       H   -0.0714794224    0.0099035412   -0.1485267941
C685       C    0.2262645214    0.0393055484   -0.2991220894
C686       C    0.2006059306    0.0385070442   -0.2742505766
C687       C    0.2051723414    0.0213958918   -0.2430421569
C688       C    0.2366740852    0.0052330996   -0.2379005476
C689       C    0.2413871782   -0.0116966190   -0.2067268708
C690       C    0.2729815462   -0.0279437102   -0.2017230860
C691       C    0.2985175593   -0.0274114399   -0.2267148903
C692       C    0.2938686127   -0.0105356146   -0.2580309574
C693       C    0.2624718884    0.0058887759   -0.2630415157
C694       C    0.2577970248    0.0229172105   -0.2941582870
C695       C    0.2854110681    0.0237285856   -0.3207092882
O696       O    0.2808702110    0.0412413911   -0.3463869959
N697       N    0.3145331495    0.0059307579   -0.3149738692
C698       C    0.3210050022   -0.0104199382   -0.2851156398
O699       O    0.3478923957   -0.0254014669   -0.2791465724
C700       C    0.3397902323    0.0044002842   -0.3412597506
C701       C    0.3575956742    0.0338365455   -0.3518216279
C702       C    0.3834824806    0.0315498384   -0.3763626726
C703       C    0.1084622687    0.0000000000   -0.1084622687
C704       C    0.3735164618   -0.0292792497   -0.3813390257
C705       C    0.3479139503   -0.0271583953   -0.3564625188
C706       C    0.2139516058   -0.0122352304   -0.1799477516
O707       O    0.2198777833   -0.0272227951   -0.1530518815
N708       N    0.1840487575    0.0039804372   -0.1865412932
C709       C    0.1775048100    0.0198770302   -0.2165753868
O710       O    0.1495447607    0.0323764095   -0.2235476933
C711       C    0.1581391799    0.0034016151   -0.1608588627
C712       C    0.1635700610    0.0199560264   -0.1294101246
C713       C    0.1389432581    0.0182530624   -0.1035224115
C714       C    0.1029868103   -0.0165203305   -0.1398868495
C715       C    0.1273320839   -0.0144834099   -0.1659694723
H716       H    0.3349427850   -0.0501227748   -0.3488103892
H717       H    0.1869090175    0.0336185273   -0.1246425463
C718       C    0.3915377313   -0.0000000000   -0.3915377313
H719       H    0.3795442362   -0.0536802570   -0.3924853215
H720       H    0.1436689608    0.0308195351   -0.0795305944
H721       H    0.0803044882   -0.0312116484   -0.1445872671
O722       O    0.1202479512   -0.0296130479   -0.1962975431
H723       H    0.1214095271   -0.0135934207   -0.2143163921
H724       H    0.2777864923   -0.0412573919   -0.1781436224
H725       H    0.3222428973   -0.0403854448   -0.2217036185
H726       H    0.2215243339    0.0527669415   -0.3226252560
H727       H    0.1768079191    0.0513075824   -0.2793471544
O728       O    0.3497306619    0.0650448490   -0.3390554354
H729       H    0.3262552030    0.0698125145   -0.3420592286
H730       H    0.3969997529    0.0544807190   -0.3829940306
C639       C    0.2982362005    0.0408955248    0.2271504102
C640       C    0.2733821317    0.0401147938    0.2014743754
C641       C    0.2425603620    0.0222218565    0.2056541364
C642       C    0.2377846686    0.0052576342    0.2367899643
C643       C    0.2069936617   -0.0124564301    0.2411203873
C644       C    0.2023576437   -0.0295039119    0.2723469885
C645       C    0.2273378249   -0.0289839209    0.2978946248
C646       C    0.2582723932   -0.0113219954    0.2936271769
C647       C    0.2629113154    0.0058984836    0.2626020887
C648       C    0.2936432598    0.0237091145    0.2583120521
C649       C    0.3201766000    0.0244966151    0.2859437563
O650       O    0.3454601424    0.0426682921    0.2817970646
N651       N    0.3148427731    0.0059375980    0.3146642455
C652       C    0.2853545334   -0.0112075175    0.3207661086
O653       O    0.2797243683   -0.0269074142    0.3473145998
C654       C    0.3411622060    0.0044305934    0.3398877768
C655       C    0.3510757123    0.0336925085    0.3583415898
C656       C    0.3756675902    0.0313771942    0.3841775630
C657       C    0.1084622687   -0.0000000000    0.1084622687
C658       C    0.3819837878   -0.0290921921    0.3728716998
C659       C    0.3570602619   -0.0269563378    0.3473162072
C660       C    0.1802262782   -0.0129802801    0.2136730791
O661       O    0.1536694355   -0.0286854497    0.2192602294
N662       N    0.1864527719    0.0040335459    0.1841372787
C663       C    0.2161268449    0.0207302564    0.1779533519
O664       O    0.2228145641    0.0339950637    0.1502778899
C665       C    0.1607830701    0.0034600231    0.1582149725
C666       C    0.1289777034    0.0191918226    0.1640024822
C667       C    0.1031279101    0.0174618407    0.1393377595
C668       C    0.1402427204   -0.0156972843    0.1026309394
C669       C    0.1662799312   -0.0136229860    0.1270216249
H670       H    0.3499140329   -0.0497920346    0.3338391413
H671       H    0.1239152279    0.0322268877    0.1876363359
C672       C    0.3915377313   -0.0000000000    0.3915377313
H673       H    0.3936677629   -0.0533682443    0.3783617948
H674       H    0.0788655521    0.0293879180    0.1443340032
H675       H    0.1452609345   -0.0297766505    0.0796308208
O676       O    0.1969330327   -0.0279189445    0.1196124616
H677       H    0.2145939548   -0.0115348188    0.1211319644
H678       H    0.1790791549   -0.0434380042    0.2768509599
H679       H    0.2226201115   -0.0425862809    0.3213264043
H680       H    0.3214351645    0.0549741411    0.2227144255
H681       H    0.2781889439    0.0535472611    0.1779661297
O682       O    0.3376214394    0.0647773357    0.3511646580
H683       H    0.3405134725    0.0701275039    0.3278009591
H684       H    0.3817941697    0.0541448019    0.3981996138
C593       C   -0.2737354786    0.0393055484    0.2008779106
C594       C   -0.2993940694    0.0385070442    0.2257494234
C595       C   -0.2948276586    0.0213958918    0.2569578431
C596       C   -0.2633259148    0.0052330996    0.2620994524
C597       C   -0.2586128218   -0.0116966190    0.2932731292
C598       C   -0.2270184538   -0.0279437102    0.2982769140
C599       C   -0.2014824407   -0.0274114399    0.2732851097
C600       C   -0.2061313873   -0.0105356146    0.2419690426
C601       C   -0.2375281116    0.0058887759    0.2369584843
C602       C   -0.2422029752    0.0229172105    0.2058417130
C603       C   -0.2145889319    0.0237285856    0.1792907118
O604       O   -0.2191297890    0.0412413911    0.1536130041
N605       N   -0.1854668505    0.0059307579    0.1850261308
C606       C   -0.1789949978   -0.0104199382    0.2148843602
O607       O   -0.1521076043   -0.0254014669    0.2208534276
C608       C   -0.1602097677    0.0044002842    0.1587402494
C609       C   -0.1424043258    0.0338365455    0.1481783721
C610       C   -0.1165175194    0.0315498384    0.1236373274
C611       C   -0.3915377313   -0.0000000000    0.3915377313
C612       C   -0.1264835382   -0.0292792497    0.1186609743
C613       C   -0.1520860497   -0.0271583953    0.1435374812
C614       C   -0.2860483942   -0.0122352304    0.3200522484
O615       O   -0.2801222167   -0.0272227951    0.3469481185
N616       N   -0.3159512425    0.0039804372    0.3134587068
C617       C   -0.3224951900    0.0198770302    0.2834246132
O618       O   -0.3504552393    0.0323764095    0.2764523067
C619       C   -0.3418608201    0.0034016151    0.3391411373
C620       C   -0.3364299390    0.0199560264    0.3705898754
C621       C   -0.3610567419    0.0182530624    0.3964775885
C622       C   -0.3970131897   -0.0165203305    0.3601131505
C623       C   -0.3726679161   -0.0144834099    0.3340305277
H624       H   -0.1650572150   -0.0501227748    0.1511896108
H625       H   -0.3130909825    0.0336185273    0.3753574537
C626       C   -0.1084622687   -0.0000000000    0.1084622687
H627       H   -0.1204557638   -0.0536802570    0.1075146785
H628       H   -0.3563310392    0.0308195351    0.4204694056
H629       H   -0.4196955118   -0.0312116484    0.3554127329
O630       O   -0.3797520488   -0.0296130479    0.3037024569
H631       H   -0.3785904729   -0.0135934207    0.2856836079
H632       H   -0.2222135077   -0.0412573919    0.3218563776
H633       H   -0.1777571027   -0.0403854448    0.2782963815
H634       H   -0.2784756661    0.0527669415    0.1773747440
H635       H   -0.3231920809    0.0513075824    0.2206528456
O636       O   -0.1502693381    0.0650448490    0.1609445646
H637       H   -0.1737447970    0.0698125145    0.1579407714
H638       H   -0.1030002471    0.0544807190    0.1170059694
C547       C    0.0641687771    0.2563133843   -0.2690732264
C548       C    0.0642627094    0.2317333623   -0.2431231449
C549       C    0.0338267231    0.2201958265   -0.2280186718
C550       C    0.0033200241    0.2343620065   -0.2402126263
C551       C   -0.0270960680    0.2227759215   -0.2253381275
C552       C   -0.0576162078    0.2371203624   -0.2375842698
C553       C   -0.0576908757    0.2619228505   -0.2633095992
C554       C   -0.0272529583    0.2736645927   -0.2782349773
C555       C    0.0032363957    0.2592663108   -0.2662470933
C556       C    0.0336422121    0.2707589015   -0.2811964104
C557       C    0.0333844772    0.2970808544   -0.3090395020
O558       O    0.0605922838    0.3042570499   -0.3230001571
N559       N    0.0031775044    0.3112056599   -0.3183013588
C560       C   -0.0272281545    0.3006911567   -0.3054294853
O561       O   -0.0548217780    0.3123359961   -0.3147029720
C562       C    0.0030618011    0.3381725866   -0.3428773962
C563       C    0.0130193559    0.3324367181   -0.3769805840
C564       C    0.0110694098    0.3587305226   -0.4011146305
C565       C    0.0000000000    0.1084622687   -0.1084622687
C566       C   -0.0095237205    0.3973923307   -0.3574631568
C567       C   -0.0080370642    0.3710233487   -0.3333531205
C568       C   -0.0269553178    0.1961614027   -0.1977379546
O569       O   -0.0545306857    0.1868743842   -0.1860552807
N570       N    0.0034866975    0.1834520402   -0.1871380104
C571       C    0.0338227098    0.1943590899   -0.1997211069
O572       O    0.0614797939    0.1847181333   -0.1883743207
C573       C    0.0033431147    0.1580684783   -0.1609295643
C574       C   -0.0112790827    0.1258203575   -0.1671598281
C575       C   -0.0128907138    0.1013039365   -0.1411617331
C576       C    0.0146514828    0.1406600166   -0.1022136432
C577       C    0.0167204243    0.1650439897   -0.1282575665
H578       H   -0.0160099634    0.3761703828   -0.3075827914
H579       H   -0.0219103280    0.1197987085   -0.1917528553
C580       C    0.0000000000    0.3915377313   -0.3915377313
H581       H   -0.0183241110    0.4222744864   -0.3497550712
H582       H   -0.0244355909    0.0768894718   -0.1463100834
H583       H    0.0243324891    0.1474332668   -0.0774584885
O584       O    0.0323689982    0.1951573698   -0.1213881245
H585       H    0.0506090854    0.1990025192   -0.1367234000
H586       H   -0.0816360058    0.2289862560   -0.2269438587
H587       H   -0.0817613474    0.2722373714   -0.2717091444
H588       H    0.0881739989    0.2643161140   -0.2798334760
H589       H    0.0883455705    0.2215707872   -0.2345842863
O590       O    0.0252890258    0.3016831097   -0.3871029877
H591       H    0.0439472422    0.2949953038   -0.3733191278
H592       H    0.0180600460    0.3529829511   -0.4270108324
C501       C    0.0555539890   -0.2862813643   -0.2391052464
C502       C    0.0560186857   -0.2604115763   -0.2144449309
C503       C    0.0289827271   -0.2370464759   -0.2111680224
C504       C    0.0014414313   -0.2408970056   -0.2336776272
C505       C   -0.0256531011   -0.2177563199   -0.2303577291
C506       C   -0.0531719674   -0.2216603294   -0.2530443028
C507       C   -0.0534954694   -0.2473284285   -0.2779040211
C508       C   -0.0263519188   -0.2705301761   -0.2813693940
C509       C    0.0010524467   -0.2668635424   -0.2586498617
C510       C    0.0280910544   -0.2900695311   -0.2618857807
C511       C    0.0274338472   -0.3177811152   -0.2883392412
O512       O    0.0506095786   -0.3389835581   -0.2882736489
N513       N    0.0009665051   -0.3188969906   -0.3106100281
C514       C   -0.0263754460   -0.2977248676   -0.3083957744
O515       O   -0.0511246591   -0.2994749502   -0.3275640179
C516       C    0.0015200128   -0.3435359551   -0.3375140278
C517       C   -0.0003106158   -0.3788072520   -0.3306100501
C518       C   -0.0015095952   -0.4024886934   -0.3573564597
C519       C   -0.0000000000   -0.1084622687   -0.1084622687
C520       C    0.0022549125   -0.3564183877   -0.3984370999
C521       C    0.0029999860   -0.3326291251   -0.3717473441
C522       C   -0.0252514208   -0.1902341123   -0.2036652450
O523       O   -0.0499771181   -0.1710340383   -0.2018956266
N524       N    0.0021924511   -0.1879542927   -0.1826357580
C525       C    0.0296583687   -0.2088454463   -0.1852347505
O526       O    0.0555915534   -0.2052013616   -0.1678910924
C527       C    0.0022879802   -0.1617389397   -0.1572591029
C528       C   -0.0217961735   -0.1624058152   -0.1305743704
C529       C   -0.0228708778   -0.1360216046   -0.1064440650
C530       C    0.0241022782   -0.1077838458   -0.1350898140
C531       C    0.0255487867   -0.1343330560   -0.1589685002
H532       H    0.0041948488   -0.3058845670   -0.3778686072
H533       H   -0.0400352334   -0.1828492207   -0.1287023431
C534       C    0.0000000000   -0.3915377313   -0.3915377313
H535       H    0.0031497669   -0.3475740140   -0.4244555437
H536       H   -0.0416606887   -0.1368098528   -0.0863897025
H537       H    0.0417187521   -0.0869522456   -0.1379395097
O538       O    0.0501650007   -0.1332510013   -0.1832944929
H539       H    0.0637856264   -0.1531657195   -0.1825601997
H540       H   -0.0745937118   -0.2044884594   -0.2514416553
H541       H   -0.0751271084   -0.2491590625   -0.2947874533
H542       H    0.0768929634   -0.3035590809   -0.2405905091
H543       H    0.0777421360   -0.2584566061   -0.1976984675
O544       O   -0.0002988761   -0.3906949022   -0.2980911952
H545       H    0.0188375986   -0.3823433947   -0.2859710369
H546       H   -0.0038093034   -0.4290591374   -0.3509346460
C455       C    0.0368178533   -0.2750126916    0.1996006977
C456       C    0.0375942733   -0.2998626971    0.2252807957
C457       C    0.0188381563   -0.2961408312    0.2556446705
C458       C   -0.0007955366   -0.2664210901    0.2590042771
C459       C   -0.0196830895   -0.2627131731    0.2891727779
C460       C   -0.0392602922   -0.2328285251    0.2924668427
C461       C   -0.0397909897   -0.2078382525    0.2669292978
C462       C   -0.0208341430   -0.2114187774    0.2366816525
C463       C   -0.0014401663   -0.2412908800    0.2331957159
C464       C    0.0173528588   -0.2450597812    0.2029849069
C465       C    0.0163869055   -0.2183582400    0.1755214037
O466       O    0.0312828351   -0.2242426331    0.1485001599
N467       N   -0.0015398369   -0.1893023450    0.1811906364
C468       C   -0.0209047223   -0.1843780139    0.2095013441
O469       O   -0.0383579623   -0.1587596271    0.2142014048
C470       C   -0.0003742749   -0.1626610846    0.1562889325
C471       C   -0.0143580495   -0.1671480188    0.1234346791
C472       C   -0.0145549279   -0.1401882689    0.0999665780
C473       C    0.0000000000   -0.3915377313    0.3915377313
C474       C    0.0143244624   -0.1040968605    0.1410476519
C475       C    0.0141559861   -0.1308747423    0.1647487885
C476       C   -0.0190749597   -0.2895599946    0.3165406480
O477       O   -0.0365031925   -0.2848868859    0.3421834492
N478       N    0.0004435502   -0.3177671235    0.3116428259
C479       C    0.0201157447   -0.3223726310    0.2835471721
O480       O    0.0397332154   -0.3466781654    0.2802293806
C481       C    0.0007754790   -0.3432091104    0.3377928470
C482       C   -0.0291463087   -0.3616396768    0.3453801376
C483       C   -0.0294668627   -0.3855567335    0.3719775969
C484       C    0.0299249659   -0.3731676080    0.3839587322
C485       C    0.0304624677   -0.3495921543    0.3571062896
H486       H    0.0248420828   -0.1265693427    0.1896774832
H487       H   -0.0522740512   -0.3571892800    0.3312591561
C488       C   -0.0000000000   -0.1084622687    0.1084622687
H489       H    0.0253205200   -0.0798958013    0.1480746411
H490       H   -0.0526660798   -0.3991935722    0.3776068725
H491       H    0.0528845758   -0.3765194844    0.3985887603
O492       O    0.0603012367   -0.3335889583    0.3498655474
H493       H    0.0666757959   -0.3373792779    0.3268948029
H494       H   -0.0542230488   -0.2288702341    0.3151996512
H495       H   -0.0550957169   -0.1853095359    0.2707439483
H496       H    0.0516400377   -0.2790542322    0.1767961778
H497       H    0.0530589256   -0.3222929200    0.2215520065
O498       O   -0.0273155118   -0.1976882739    0.1135256287
H499       H   -0.0109878712   -0.2152287006    0.1164568677
H500       H   -0.0262841669   -0.1444659247    0.0755402918
C409       C    0.0640792514    0.2441216884    0.2304917009
C410       C    0.0638932140    0.2700622936    0.2550811992
C411       C    0.0340004732    0.2789597908    0.2728257108
C412       C    0.0043612954    0.2605776732    0.2648476939
C413       C   -0.0254562520    0.2692549794    0.2826309716
C414       C   -0.0551337178    0.2508153518    0.2744800161
C415       C   -0.0550193319    0.2250941088    0.2496734415
C416       C   -0.0252019775    0.2163681490    0.2317322809
C417       C    0.0045088689    0.2345497853    0.2399368106
C418       C    0.0343504825    0.2257990797    0.2222456084
C419       C    0.0344099526    0.1979355895    0.1959440542
O420       O    0.0618567168    0.1895981194    0.1831446736
N421       N    0.0044755758    0.1824860353    0.1880069460
C422       C   -0.0251443604    0.1891821209    0.2046972371
O423       O   -0.0520716776    0.1742991978    0.1986618341
C424       C    0.0038828921    0.1578371148    0.1611129023
C425       C    0.0214553630    0.1265663788    0.1640163191
C426       C    0.0191510663    0.1019946306    0.1381602163
C427       C    0.0000000000    0.3915377313    0.3915377313
C428       C   -0.0171747845    0.1397899432    0.1053545692
C429       C   -0.0152945807    0.1642463821    0.1313771488
C430       C   -0.0255199529    0.2968630795    0.3092375631
O431       O   -0.0524346685    0.3029394918    0.3241308434
N432       N    0.0040848685    0.3136409970    0.3157689523
C433       C    0.0335007554    0.3072055289    0.2987142743
O434       O    0.0596673261    0.3240900107    0.3028175353
C435       C    0.0037810203    0.3398034088    0.3411985486
C436       C   -0.0024812643    0.3314244262    0.3755953883
C437       C   -0.0043246361    0.3570670500    0.4004672804
C438       C    0.0062968062    0.3999416406    0.3571846997
C439       C    0.0086144501    0.3743490351    0.3323494088
H440       H   -0.0291669160    0.1877691444    0.1284776814
H441       H   -0.0065026607    0.3053238486    0.3831245876
C442       C    0.0000000000    0.1084622687    0.1084622687
H443       H   -0.0321773943    0.1450490356    0.0829214068
H444       H   -0.0094337375    0.3502052400    0.4265952048
H445       H    0.0092232429    0.4259939234    0.3491143213
O446       O    0.0161619177    0.3836050228    0.2998494829
H447       H    0.0359610206    0.3721834439    0.2920906369
H448       H   -0.0786625889    0.2565636749    0.2875062104
H449       H   -0.0784776193    0.2118045241    0.2442489601
H450       H    0.0876447719    0.2382557978    0.2175946123
H451       H    0.0873046868    0.2834876498    0.2603572767
O452       O    0.0414530317    0.1197638295    0.1914500732
H453       H    0.0579077045    0.1371603108    0.1945252575
H454       H    0.0322282431    0.0781631238    0.1418430927
loop_
_geom_bond_atom_site_label_1
_geom_bond_atom_site_label_2
_geom_bond_distance
_geom_bond_site_symmetry_2
_ccdc_geom_bond_type
