data_fcu_v1-12c_Hf_1_Ch_dummy_1-diedgenobond
_audit_creation_date              2025-01-20
_audit_creation_method            'tobacco_3.0'
_symmetry_space_group_name_H-M    'P1'
_symmetry_Int_Tables_number       1
_symmetry_cell_setting            triclinic
loop_
_symmetry_equiv_pos_as_xyz
  x,y,z
_cell_length_a                    39.35326538134093
_cell_length_b                    39.35326538134093
_cell_length_c                    39.35326538134093
_cell_angle_alpha                 90.0
_cell_angle_beta                  90.0
_cell_angle_gamma                 90.0
loop_
_atom_site_label
_atom_site_type_symbol
_atom_site_fract_x
_atom_site_fract_y
_atom_site_fract_z
D55        D    0.0204733942    0.0752383860   -0.0021741671
D56        D    0.0102874120    0.0569070105   -0.0313568542
D57        D   -0.0166871207    0.0422086143   -0.0127086767
D58        D   -0.0065011385    0.0605399899    0.0164740104
D59        D    0.0046560949    0.0796681075   -0.0215623596
D60        D   -0.0223184378    0.0649697114   -0.0029141821
D61        D   -0.0008698215    0.0377788929    0.0066795159
D62        D    0.0261047113    0.0524772890   -0.0119686617
Hf9       Hf   -0.0000000000    0.0630697345    0.0000000000
D63        D    0.0021741671    0.0204733942   -0.0752383860
D64        D    0.0313568542    0.0102874120   -0.0569070105
D65        D    0.0127086767   -0.0166871207   -0.0422086143
D66        D   -0.0164740104   -0.0065011385   -0.0605399899
D67        D    0.0215623596    0.0046560949   -0.0796681075
D68        D    0.0029141821   -0.0223184378   -0.0649697114
D69        D   -0.0066795159   -0.0008698215   -0.0377788929
D70        D    0.0119686617    0.0261047113   -0.0524772890
Hf36      Hf    0.0000000000    0.0000000000   -0.0630697345
D71        D    0.0033872035    0.0222928394    0.0767717043
D72        D   -0.0013856134   -0.0130811316    0.0809340568
D73        D   -0.0128131596   -0.0155378766    0.0469517323
D74        D   -0.0080403427    0.0198360945    0.0427893798
D75        D    0.0178683245    0.0016874056    0.0733916712
D76        D    0.0064407782   -0.0007693393    0.0394093467
D77        D   -0.0272942805    0.0050675572    0.0503317654
D78        D   -0.0158667344    0.0075243022    0.0843140899
Hf37      Hf   -0.0000000000   -0.0000000000    0.0630697345
D79        D    0.0752383860    0.0204733942   -0.0021741671
D80        D    0.0774562090   -0.0152040325   -0.0058654097
D81        D    0.0422086143   -0.0166871207   -0.0127086767
D82        D    0.0399907912    0.0189903060   -0.0090174340
D83        D    0.0796681075    0.0046560949   -0.0215623596
D84        D    0.0444205127    0.0031730067   -0.0284056266
D85        D    0.0377788929   -0.0008698215    0.0066795159
D86        D    0.0730264877    0.0006132668    0.0135227828
Hf38      Hf    0.0630697345   -0.0000000000    0.0000000000
D87        D   -0.0767717043    0.0033872035    0.0222928394
D88        D   -0.0482226597    0.0166679396    0.0049724213
D89        D   -0.0469517323   -0.0128131596   -0.0155378766
D90        D   -0.0755007769   -0.0260938958    0.0017825415
D91        D   -0.0733916712    0.0178683245    0.0016874056
D92        D   -0.0721207438   -0.0116127747   -0.0188228924
D93        D   -0.0503317654   -0.0272942805    0.0050675572
D94        D   -0.0516026928    0.0021868187    0.0255778552
Hf39      Hf   -0.0630697345    0.0000000000    0.0000000000
D100       D   -0.0007693393   -0.0394093467   -0.0064407782
D101       D    0.0050675572   -0.0503317654    0.0272942805
D102       D    0.0075243022   -0.0843140899    0.0158667344
D95        D    0.0222928394   -0.0767717043   -0.0033872035
D96        D   -0.0130811316   -0.0809340568    0.0013856134
D97        D   -0.0155378766   -0.0469517323    0.0128131596
D98        D    0.0198360945   -0.0427893798    0.0080403427
D99        D    0.0016874056   -0.0733916712   -0.0178683245
Hf40      Hf   -0.0000000000   -0.0630697345   -0.0000000000
H16        H    0.0473404172    0.0473404172   -0.0473404172
O17        O    0.0295070813    0.0295070813   -0.0295070813
H18        H   -0.0473404172    0.0473404172    0.0473404172
O19        O   -0.0295070813    0.0295070813    0.0295070813
H51        H    0.0473404172   -0.0473404172    0.0473404172
O52        O    0.0295070813   -0.0295070813    0.0295070813
H53        H   -0.0473404172   -0.0473404172   -0.0473404172
O54        O   -0.0295070813   -0.0295070813   -0.0295070813
O10        O   -0.0295070813    0.0295070813   -0.0295070813
O11        O    0.0295070813    0.0295070813    0.0295070813
O41        O   -0.0295070813   -0.0295070813    0.0295070813
O42        O    0.0295070813   -0.0295070813   -0.0295070813
O1         O   -0.0000000000    0.0501305287    0.0896850608
O8         O   -0.0000000000    0.0896850608    0.0501305287
C12        C   -0.0000000000    0.0807912627    0.0807912627
O2         O    0.0000000000    0.0501305287   -0.0896850608
O7         O    0.0000000000    0.0896850608   -0.0501305287
C13        C    0.0000000000    0.0807912627   -0.0807912627
O3         O    0.0501305287    0.0896850608    0.0000000000
O6         O    0.0896850608    0.0501305287    0.0000000000
C14        C    0.0807912627    0.0807912627    0.0000000000
O4         O   -0.0501305287    0.0896850608    0.0000000000
O5         O   -0.0896850608    0.0501305287    0.0000000000
C15        C   -0.0807912627    0.0807912627    0.0000000000
O20        O    0.0000000000   -0.0501305287   -0.0896850608
O34        O    0.0000000000   -0.0896850608   -0.0501305287
C43        C    0.0000000000   -0.0807912627   -0.0807912627
O21        O   -0.0000000000   -0.0501305287    0.0896850608
O35        O   -0.0000000000   -0.0896850608    0.0501305287
C44        C   -0.0000000000   -0.0807912627    0.0807912627
O22        O    0.0896850608    0.0000000000   -0.0501305287
O30        O    0.0501305287    0.0000000000   -0.0896850608
C45        C    0.0807912627    0.0000000000   -0.0807912627
O23        O   -0.0896850608    0.0000000000   -0.0501305287
O33        O   -0.0501305287    0.0000000000   -0.0896850608
C46        C   -0.0807912627    0.0000000000   -0.0807912627
O24        O   -0.0896850608   -0.0000000000    0.0501305287
O32        O   -0.0501305287   -0.0000000000    0.0896850608
C47        C   -0.0807912627   -0.0000000000    0.0807912627
O25        O    0.0896850608   -0.0000000000    0.0501305287
O31        O    0.0501305287   -0.0000000000    0.0896850608
C48        C    0.0807912627   -0.0000000000    0.0807912627
O26        O    0.0501305287   -0.0896850608   -0.0000000000
O28        O    0.0896850608   -0.0501305287   -0.0000000000
C49        C    0.0807912627   -0.0807912627   -0.0000000000
O27        O   -0.0501305287   -0.0896850608   -0.0000000000
O29        O   -0.0896850608   -0.0501305287    0.0000000000
C50        C   -0.0807912627   -0.0807912627   -0.0000000000
D157       D    0.0204733942    0.4247616140    0.5021741671
D158       D    0.0102874120    0.4430929895    0.5313568542
D159       D   -0.0166871207    0.4577913857    0.5127086767
D160       D   -0.0065011385    0.4394600101    0.4835259896
D161       D    0.0046560949    0.4203318925    0.5215623596
D162       D   -0.0223184378    0.4350302886    0.5029141821
D163       D   -0.0008698215    0.4622211071    0.4933204841
D164       D    0.0261047113    0.4475227110    0.5119686617
Hf111     Hf    0.0000000000    0.4369302655    0.5000000000
D165       D    0.0021741671    0.4795266058    0.5752383860
D166       D    0.0313568542    0.4897125880    0.5569070105
D167       D    0.0127086767    0.5166871207    0.5422086143
D168       D   -0.0164740104    0.5065011385    0.5605399899
D169       D    0.0215623596    0.4953439051    0.5796681075
D170       D    0.0029141821    0.5223184378    0.5649697114
D171       D   -0.0066795159    0.5008698215    0.5377788929
D172       D    0.0119686617    0.4738952887    0.5524772890
Hf138     Hf    0.0000000000    0.5000000000    0.5630697345
D173       D    0.0033872035    0.4777071606    0.4232282957
D174       D   -0.0013856134    0.5130811316    0.4190659432
D175       D   -0.0128131596    0.5155378766    0.4530482677
D176       D   -0.0080403427    0.4801639055    0.4572106202
D177       D    0.0178683245    0.4983125944    0.4266083288
D178       D    0.0064407782    0.5007693393    0.4605906533
D179       D   -0.0272942805    0.4949324428    0.4496682346
D180       D   -0.0158667344    0.4924756978    0.4156859101
Hf139     Hf    0.0000000000    0.5000000000    0.4369302655
D181       D    0.0752383860    0.4795266058    0.5021741671
D182       D    0.0774562090    0.5152040325    0.5058654097
D183       D    0.0422086143    0.5166871207    0.5127086767
D184       D    0.0399907912    0.4810096940    0.5090174340
D185       D    0.0796681075    0.4953439051    0.5215623596
D186       D    0.0444205127    0.4968269933    0.5284056266
D187       D    0.0377788929    0.5008698215    0.4933204841
D188       D    0.0730264877    0.4993867332    0.4864772172
Hf140     Hf    0.0630697345    0.5000000000    0.5000000000
D189       D   -0.0767717043    0.4966127965    0.4777071606
D190       D   -0.0482226597    0.4833320604    0.4950275787
D191       D   -0.0469517323    0.5128131596    0.5155378766
D192       D   -0.0755007769    0.5260938958    0.4982174585
D193       D   -0.0733916712    0.4821316755    0.4983125944
D194       D   -0.0721207438    0.5116127747    0.5188228924
D195       D   -0.0503317654    0.5272942805    0.4949324428
D196       D   -0.0516026928    0.4978131813    0.4744221448
Hf141     Hf   -0.0630697345    0.5000000000    0.5000000000
D202       D   -0.0007693393    0.5394093467    0.5064407782
D203       D    0.0050675572    0.5503317654    0.4727057195
D204       D    0.0075243022    0.5843140899    0.4841332656
D197       D    0.0222928394    0.5767717043    0.5033872035
D198       D   -0.0130811316    0.5809340568    0.4986143866
D199       D   -0.0155378766    0.5469517323    0.4871868404
D200       D    0.0198360945    0.5427893798    0.4919596573
D201       D    0.0016874056    0.5733916712    0.5178683245
Hf142     Hf    0.0000000000    0.5630697345    0.5000000000
H118       H    0.0473404172    0.4526595828    0.5473404172
O119       O    0.0295070813    0.4704929187    0.5295070813
H120       H   -0.0473404172    0.4526595828    0.4526595828
O121       O   -0.0295070813    0.4704929187    0.4704929187
H153       H    0.0473404172    0.5473404172    0.4526595828
O154       O    0.0295070813    0.5295070813    0.4704929187
H155       H   -0.0473404172    0.5473404172    0.5473404172
O156       O   -0.0295070813    0.5295070813    0.5295070813
O112       O   -0.0295070813    0.4704929187    0.5295070813
O113       O    0.0295070813    0.4704929187    0.4704929187
O143       O   -0.0295070813    0.5295070813    0.4704929187
O144       O    0.0295070813    0.5295070813    0.5295070813
O103       O    0.0000000000    0.4498694713    0.4103149392
O110       O    0.0000000000    0.4103149392    0.4498694713
C114       C    0.0000000000    0.4192087373    0.4192087373
O104       O   -0.0000000000    0.4498694713    0.5896850608
O109       O    0.0000000000    0.4103149392    0.5501305287
C115       C   -0.0000000000    0.4192087373    0.5807912627
O105       O    0.0501305287    0.4103149392    0.5000000000
O108       O    0.0896850608    0.4498694713    0.5000000000
C116       C    0.0807912627    0.4192087373    0.5000000000
O106       O   -0.0501305287    0.4103149392    0.5000000000
O107       O   -0.0896850608    0.4498694713    0.5000000000
C117       C   -0.0807912627    0.4192087373    0.5000000000
O122       O    0.0000000000    0.5501305287    0.5896850608
O136       O    0.0000000000    0.5896850608    0.5501305287
C145       C    0.0000000000    0.5807912627    0.5807912627
O123       O    0.0000000000    0.5501305287    0.4103149392
O137       O    0.0000000000    0.5896850608    0.4498694713
C146       C    0.0000000000    0.5807912627    0.4192087373
O124       O    0.0896850608    0.5000000000    0.5501305287
O132       O    0.0501305287    0.5000000000    0.5896850608
C147       C    0.0807912627    0.5000000000    0.5807912627
O125       O   -0.0896850608    0.5000000000    0.5501305287
O135       O   -0.0501305287    0.5000000000    0.5896850608
C148       C   -0.0807912627    0.5000000000    0.5807912627
O126       O   -0.0896850608    0.5000000000    0.4498694713
O134       O   -0.0501305287    0.5000000000    0.4103149392
C149       C   -0.0807912627    0.5000000000    0.4192087373
O127       O    0.0896850608    0.5000000000    0.4498694713
O133       O    0.0501305287    0.5000000000    0.4103149392
C150       C    0.0807912627    0.5000000000    0.4192087373
O128       O    0.0501305287    0.5896850608    0.5000000000
O130       O    0.0896850608    0.5501305287    0.5000000000
C151       C    0.0807912627    0.5807912627    0.5000000000
O129       O   -0.0501305287    0.5896850608    0.5000000000
O131       O   -0.0896850608    0.5501305287    0.5000000000
C152       C   -0.0807912627    0.5807912627    0.5000000000
D259       D    0.5752383860    1.0204733942    0.5021741671
D260       D    0.5569070105    1.0102874120    0.5313568542
D261       D    0.5422086143    0.9833128793    0.5127086767
D262       D    0.5605399899    0.9934988615    0.4835259896
D263       D    0.5796681075    1.0046560949    0.5215623596
D264       D    0.5649697114    0.9776815622    0.5029141821
D265       D    0.5377788929    0.9991301785    0.4933204841
D266       D    0.5524772890    1.0261047113    0.5119686617
Hf213     Hf    0.5630697345    1.0000000000    0.5000000000
D267       D    0.5204733942    1.0021741671    0.5752383860
D268       D    0.5102874120    1.0313568542    0.5569070105
D269       D    0.4833128793    1.0127086767    0.5422086143
D270       D    0.4934988615    0.9835259896    0.5605399899
D271       D    0.5046560949    1.0215623596    0.5796681075
D272       D    0.4776815622    1.0029141821    0.5649697114
D273       D    0.4991301785    0.9933204841    0.5377788929
D274       D    0.5261047113    1.0119686617    0.5524772890
Hf240     Hf    0.5000000000    1.0000000000    0.5630697345
D275       D    0.5222928394    1.0033872035    0.4232282957
D276       D    0.4869188684    0.9986143866    0.4190659432
D277       D    0.4844621234    0.9871868404    0.4530482677
D278       D    0.5198360945    0.9919596573    0.4572106202
D279       D    0.5016874056    1.0178683245    0.4266083288
D280       D    0.4992306607    1.0064407782    0.4605906533
D281       D    0.5050675572    0.9727057195    0.4496682346
D282       D    0.5075243022    0.9841332656    0.4156859101
Hf241     Hf    0.5000000000    1.0000000000    0.4369302655
D283       D    0.5204733942    1.0752383860    0.5021741671
D284       D    0.4847959675    1.0774562090    0.5058654097
D285       D    0.4833128793    1.0422086143    0.5127086767
D286       D    0.5189903060    1.0399907912    0.5090174340
D287       D    0.5046560949    1.0796681075    0.5215623596
D288       D    0.5031730067    1.0444205127    0.5284056266
D289       D    0.4991301785    1.0377788929    0.4933204841
D290       D    0.5006132668    1.0730264877    0.4864772172
Hf242     Hf    0.5000000000    1.0630697345    0.5000000000
D291       D    0.5033872035    0.9232282957    0.4777071606
D292       D    0.5166679396    0.9517773403    0.4950275787
D293       D    0.4871868404    0.9530482677    0.5155378766
D294       D    0.4739061042    0.9244992231    0.4982174585
D295       D    0.5178683245    0.9266083288    0.4983125944
D296       D    0.4883872253    0.9278792562    0.5188228924
D297       D    0.4727057195    0.9496682346    0.4949324428
D298       D    0.5021868187    0.9483973072    0.4744221448
Hf243     Hf    0.5000000000    0.9369302655    0.5000000000
D304       D    0.4605906533    0.9992306607    0.5064407782
D305       D    0.4496682346    1.0050675572    0.4727057195
D306       D    0.4156859101    1.0075243022    0.4841332656
D299       D    0.4232282957    1.0222928394    0.5033872035
D300       D    0.4190659432    0.9869188684    0.4986143866
D301       D    0.4530482677    0.9844621234    0.4871868404
D302       D    0.4572106202    1.0198360945    0.4919596573
D303       D    0.4266083288    1.0016874056    0.5178683245
Hf244     Hf    0.4369302655    1.0000000000    0.5000000000
H220       H    0.5473404172    1.0473404172    0.5473404172
O221       O    0.5295070813    1.0295070813    0.5295070813
H222       H    0.5473404172    0.9526595828    0.4526595828
O223       O    0.5295070813    0.9704929187    0.4704929187
H255       H    0.4526595828    1.0473404172    0.4526595828
O256       O    0.4704929187    1.0295070813    0.4704929187
H257       H    0.4526595828    0.9526595828    0.5473404172
O258       O    0.4704929187    0.9704929187    0.5295070813
O214       O    0.5295070813    0.9704929187    0.5295070813
O215       O    0.5295070813    1.0295070813    0.4704929187
O245       O    0.4704929187    0.9704929187    0.4704929187
O246       O    0.4704929187    1.0295070813    0.5295070813
O205       O    0.5501305287    1.0000000000    0.4103149392
O212       O    0.5896850608    1.0000000000    0.4498694713
C216       C    0.5807912627    1.0000000000    0.4192087373
O206       O    0.5501305287    1.0000000000    0.5896850608
O211       O    0.5896850608    1.0000000000    0.5501305287
C217       C    0.5807912627    1.0000000000    0.5807912627
O207       O    0.5896850608    1.0501305287    0.5000000000
O210       O    0.5501305287    1.0896850608    0.5000000000
C218       C    0.5807912627    1.0807912627    0.5000000000
O208       O    0.5896850608    0.9498694713    0.5000000000
O209       O    0.5501305287    0.9103149392    0.5000000000
C219       C    0.5807912627    0.9192087373    0.5000000000
O224       O    0.4498694713    1.0000000000    0.5896850608
O238       O    0.4103149392    1.0000000000    0.5501305287
C247       C    0.4192087373    1.0000000000    0.5807912627
O225       O    0.4498694713    1.0000000000    0.4103149392
O239       O    0.4103149392    1.0000000000    0.4498694713
C248       C    0.4192087373    1.0000000000    0.4192087373
O226       O    0.5000000000    1.0896850608    0.5501305287
O234       O    0.5000000000    1.0501305287    0.5896850608
C249       C    0.5000000000    1.0807912627    0.5807912627
O227       O    0.5000000000    0.9103149392    0.5501305287
O237       O    0.5000000000    0.9498694713    0.5896850608
C250       C    0.5000000000    0.9192087373    0.5807912627
O228       O    0.5000000000    0.9103149392    0.4498694713
O236       O    0.5000000000    0.9498694713    0.4103149392
C251       C    0.5000000000    0.9192087373    0.4192087373
O229       O    0.5000000000    1.0896850608    0.4498694713
O235       O    0.5000000000    1.0501305287    0.4103149392
C252       C    0.5000000000    1.0807912627    0.4192087373
O230       O    0.4103149392    1.0501305287    0.5000000000
O232       O    0.4498694713    1.0896850608    0.5000000000
C253       C    0.4192087373    1.0807912627    0.5000000000
O231       O    0.4103149392    0.9498694713    0.5000000000
O233       O    0.4498694713    0.9103149392    0.5000000000
C254       C    0.4192087373    0.9192087373    0.5000000000
D361       D    0.4247616140    0.5021741671    1.0204733942
D362       D    0.4430929895    0.5313568542    1.0102874120
D363       D    0.4577913857    0.5127086767    0.9833128793
D364       D    0.4394600101    0.4835259896    0.9934988615
D365       D    0.4203318925    0.5215623596    1.0046560949
D366       D    0.4350302886    0.5029141821    0.9776815622
D367       D    0.4622211071    0.4933204841    0.9991301785
D368       D    0.4475227110    0.5119686617    1.0261047113
Hf315     Hf    0.4369302655    0.5000000000    1.0000000000
D369       D    0.4795266058    0.5752383860    1.0021741671
D370       D    0.4897125880    0.5569070105    1.0313568542
D371       D    0.5166871207    0.5422086143    1.0127086767
D372       D    0.5065011385    0.5605399899    0.9835259896
D373       D    0.4953439051    0.5796681075    1.0215623596
D374       D    0.5223184378    0.5649697114    1.0029141821
D375       D    0.5008698215    0.5377788929    0.9933204841
D376       D    0.4738952887    0.5524772890    1.0119686617
Hf342     Hf    0.5000000000    0.5630697345    1.0000000000
D377       D    0.4777071606    0.4232282957    1.0033872035
D378       D    0.5130811316    0.4190659432    0.9986143866
D379       D    0.5155378766    0.4530482677    0.9871868404
D380       D    0.4801639055    0.4572106202    0.9919596573
D381       D    0.4983125944    0.4266083288    1.0178683245
D382       D    0.5007693393    0.4605906533    1.0064407782
D383       D    0.4949324428    0.4496682346    0.9727057195
D384       D    0.4924756978    0.4156859101    0.9841332656
Hf343     Hf    0.5000000000    0.4369302655    1.0000000000
D385       D    0.4795266058    0.5021741671    1.0752383860
D386       D    0.5152040325    0.5058654097    1.0774562090
D387       D    0.5166871207    0.5127086767    1.0422086143
D388       D    0.4810096940    0.5090174340    1.0399907912
D389       D    0.4953439051    0.5215623596    1.0796681075
D390       D    0.4968269933    0.5284056266    1.0444205127
D391       D    0.5008698215    0.4933204841    1.0377788929
D392       D    0.4993867332    0.4864772172    1.0730264877
Hf344     Hf    0.5000000000    0.5000000000    1.0630697345
D393       D    0.4966127965    0.4777071606    0.9232282957
D394       D    0.4833320604    0.4950275787    0.9517773403
D395       D    0.5128131596    0.5155378766    0.9530482677
D396       D    0.5260938958    0.4982174585    0.9244992231
D397       D    0.4821316755    0.4983125944    0.9266083288
D398       D    0.5116127747    0.5188228924    0.9278792562
D399       D    0.5272942805    0.4949324428    0.9496682346
D400       D    0.4978131813    0.4744221448    0.9483973072
Hf345     Hf    0.5000000000    0.5000000000    0.9369302655
D406       D    0.5394093467    0.5064407782    0.9992306607
D407       D    0.5503317654    0.4727057195    1.0050675572
D408       D    0.5843140899    0.4841332656    1.0075243022
D401       D    0.5767717043    0.5033872035    1.0222928394
D402       D    0.5809340568    0.4986143866    0.9869188684
D403       D    0.5469517323    0.4871868404    0.9844621234
D404       D    0.5427893798    0.4919596573    1.0198360945
D405       D    0.5733916712    0.5178683245    1.0016874056
Hf346     Hf    0.5630697345    0.5000000000    1.0000000000
H322       H    0.4526595828    0.5473404172    1.0473404172
O323       O    0.4704929187    0.5295070813    1.0295070813
H324       H    0.4526595828    0.4526595828    0.9526595828
O325       O    0.4704929187    0.4704929187    0.9704929187
H357       H    0.5473404172    0.4526595828    1.0473404172
O358       O    0.5295070813    0.4704929187    1.0295070813
H359       H    0.5473404172    0.5473404172    0.9526595828
O360       O    0.5295070813    0.5295070813    0.9704929187
O316       O    0.4704929187    0.5295070813    0.9704929187
O317       O    0.4704929187    0.4704929187    1.0295070813
O347       O    0.5295070813    0.4704929187    0.9704929187
O348       O    0.5295070813    0.5295070813    1.0295070813
O307       O    0.4498694713    0.4103149392    1.0000000000
O314       O    0.4103149392    0.4498694713    1.0000000000
C318       C    0.4192087373    0.4192087373    1.0000000000
O308       O    0.4498694713    0.5896850608    1.0000000000
O313       O    0.4103149392    0.5501305287    1.0000000000
C319       C    0.4192087373    0.5807912627    1.0000000000
O309       O    0.4103149392    0.5000000000    1.0501305287
O312       O    0.4498694713    0.5000000000    1.0896850608
C320       C    0.4192087373    0.5000000000    1.0807912627
O310       O    0.4103149392    0.5000000000    0.9498694713
O311       O    0.4498694713    0.5000000000    0.9103149392
C321       C    0.4192087373    0.5000000000    0.9192087373
O326       O    0.5501305287    0.5896850608    1.0000000000
O340       O    0.5896850608    0.5501305287    1.0000000000
C349       C    0.5807912627    0.5807912627    1.0000000000
O327       O    0.5501305287    0.4103149392    1.0000000000
O341       O    0.5896850608    0.4498694713    1.0000000000
C350       C    0.5807912627    0.4192087373    1.0000000000
O328       O    0.5000000000    0.5501305287    1.0896850608
O336       O    0.5000000000    0.5896850608    1.0501305287
C351       C    0.5000000000    0.5807912627    1.0807912627
O329       O    0.5000000000    0.5501305287    0.9103149392
O339       O    0.5000000000    0.5896850608    0.9498694713
C352       C    0.5000000000    0.5807912627    0.9192087373
O330       O    0.5000000000    0.4498694713    0.9103149392
O338       O    0.5000000000    0.4103149392    0.9498694713
C353       C    0.5000000000    0.4192087373    0.9192087373
O331       O    0.5000000000    0.4498694713    1.0896850608
O337       O    0.5000000000    0.4103149392    1.0501305287
C354       C    0.5000000000    0.4192087373    1.0807912627
O332       O    0.5896850608    0.5000000000    1.0501305287
O334       O    0.5501305287    0.5000000000    1.0896850608
C355       C    0.5807912627    0.5000000000    1.0807912627
O333       O    0.5896850608    0.5000000000    0.9498694713
O335       O    0.5501305287    0.5000000000    0.9103149392
C356       C    0.5807912627    0.5000000000    0.9192087373
C1467      C    0.5505045468    1.2339850357    0.2085984250
C1468      C    0.5510811694    1.2092744482    0.2344179410
C1469      C    0.5262266957    1.2085026652    0.2602881669
C1470      C    0.5007342268    1.2335725925    0.2589979597
C1471      C    0.4757960235    1.2327646899    0.2846506409
C1472      C    0.4503376440    1.2580088575    0.2833042253
C1473      C    0.4499394533    1.2829034172    0.2576709675
C1474      C    0.4749343326    1.2838516918    0.2319521217
C1475      C    0.5002532929    1.2585868242    0.2330734201
C1476      C    0.5251217434    1.2593168151    0.2073615032
C1477      C    0.5243497210    1.2858392747    0.1797189184
O1478      O    0.5452663980    1.2836450238    0.1563878168
N1479      N    0.5001611059    1.3105555902    0.1810485715
C1480      C    0.4748948479    1.3108811143    0.2047604723
O1481      O    0.4520492926    1.3323471007    0.2053081326
C1482      C    0.5009271618    1.3373958850    0.1563459021
C1483      C    0.4950602050    1.3308635253    0.1214462232
C1484      C    0.4941669147    1.3577109439    0.0978657908
C1485      C    0.5000000000    1.1084622687    0.3915377313
C1486      C    0.5062722569    1.3980254319    0.1431699443
C1487      C    0.5067316605    1.3712775273    0.1669010582
C1488      C    0.4762737182    1.2060297521    0.3121303947
O1489      O    0.4534526421    1.2065555595    0.3336258946
N1490      N    0.5016609608    1.1824497260    0.3118596754
C1491      C    0.5271140139    1.1824939380    0.2884137412
O1492      O    0.5514899343    1.1627214964    0.2896290424
C1493      C    0.5018362078    1.1570599986    0.3380619560
C1494      C    0.4753468773    1.1328168130    0.3398366274
C1495      C    0.4744987605    1.1087793361    0.3663136665
C1496      C    0.5265029005    1.1326467369    0.3897730772
C1497      C    0.5276793315    1.1563987949    0.3630972387
H1498      H    0.5110740526    1.3771314671    0.1933782929
H1499      H    0.4551324099    1.1328012150    0.3212496511
C1500      C    0.5000000000    1.3915377313    0.1084622687
H1501      H    0.5105093488    1.4237961196    0.1517665620
H1502      H    0.4538802005    1.0906274999    0.3674279447
H1503      H    0.5462318273    1.1336935007    0.4088017454
O1504      O    0.5545089963    1.1782411239    0.3616956296
H1505      H    0.5660187264    1.1762936070    0.3405676878
H1506      H    0.4306109853    1.2583927403    0.3024626256
H1507      H    0.4299552161    1.3017959479    0.2578494321
H1508      H    0.5701277496    1.2334927585    0.1893431686
H1509      H    0.5711814792    1.1905088501    0.2343537766
O1510      O    0.4908040846    1.2985495773    0.1097634799
H1511      H    0.5094007908    1.2846077661    0.1162933345
H1512      H    0.4887177782    1.3516632228    0.0716694394
C1421      C    0.5145783924    0.6926608146    0.2819525747
C1422      C    0.5155164640    0.7181094099    0.3070340829
C1423      C    0.5069612379    0.7521610546    0.2996244471
C1424      C    0.4973279664    0.7594724928    0.2659528743
C1425      C    0.4885960129    0.7933703739    0.2585155771
C1426      C    0.4790411465    0.8005980559    0.2246973119
C1427      C    0.4784051972    0.7752180399    0.1995495105
C1428      C    0.4872141398    0.7412212621    0.2068791678
C1429      C    0.4965519485    0.7338557575    0.2406308384
C1430      C    0.5051691123    0.6999438318    0.2481008563
C1431      C    0.5040725952    0.6727588178    0.2211208259
O1432      O    0.5093467297    0.6430140699    0.2297287231
N1433      N    0.4964549804    0.6818772295    0.1886157518
C1434      C    0.4871121678    0.7140642528    0.1798151052
O1435      O    0.4787865638    0.7222451546    0.1507158773
C1436      C    0.4979917762    0.6566106343    0.1623393829
C1437      C    0.4752625851    0.6287136241    0.1618690738
C1438      C    0.4759893198    0.6051739781    0.1349808688
C1439      C    0.5000000000    0.8915377313    0.3915377313
C1440      C    0.5229441880    0.6360153763    0.1091291361
C1441      C    0.5219859107    0.6598686551    0.1357548758
C1442      C    0.4892971134    0.8205614625    0.2855391801
O1443      O    0.4809940958    0.8496786784    0.2773916567
N1444      N    0.4988166356    0.8117427208    0.3176672286
C1445      C    0.5085842373    0.7796718984    0.3262479047
O1446      O    0.5196240117    0.7722145497    0.3546929963
C1447      C    0.4993096893    0.8377813470    0.3432206104
C1448      C    0.4686680520    0.8535463378    0.3534734766
C1449      C    0.4690684405    0.8801330172    0.3774013132
C1450      C    0.5306310036    0.8757820387    0.3813443015
C1451      C    0.5302768553    0.8489048384    0.3577936055
H1452      H    0.5395371314    0.6809845482    0.1352622776
H1453      H    0.4446479559    0.8457915896    0.3426568466
C1454      C    0.5000000000    0.6084622687    0.1084622687
H1455      H    0.5413030907    0.6390786519    0.0888917904
H1456      H    0.4454152045    0.8920886411    0.3847118037
H1457      H    0.5549136541    0.8840330840    0.3910751607
O1458      O    0.5602991506    0.8335812337    0.3498732720
H1459      H    0.5592524952    0.8098910781    0.3543830027
H1460      H    0.4720856701    0.8262904185    0.2177794668
H1461      H    0.4710412097    0.7820935799    0.1739599043
H1462      H    0.5213628121    0.6669388189    0.2889115912
H1463      H    0.5230771581    0.7112715763    0.3325733502
O1464      O    0.4526776617    0.6236037569    0.1876101457
H1465      H    0.4640499640    0.6227947546    0.2088908138
H1466      H    0.4576064886    0.5848136356    0.1351925809
C1375      C    0.4985908432    0.8085029824    0.7831163717
C1376      C    0.4976195633    0.7831933763    0.8083368691
C1377      C    0.5000223955    0.7483440512    0.8001295529
C1378      C    0.5035495629    0.7400746126    0.7654999797
C1379      C    0.5061435823    0.7053522691    0.7572382201
C1380      C    0.5095849222    0.6971785418    0.7224739096
C1381      C    0.5102409865    0.7224645071    0.6972320574
C1382      C    0.5075703331    0.7572969300    0.7053973599
C1383      C    0.5043517596    0.7655764634    0.7400630593
C1384      C    0.5018768594    0.8002958243    0.7483405125
C1385      C    0.5029799087    0.8273207232    0.7212003668
O1386      O    0.5033415183    0.8574230732    0.7301658662
N1387      N    0.5044414273    0.8175414054    0.6880343868
C1388      C    0.5076835564    0.7844382744    0.6783176324
O1389      O    0.5104639240    0.7754489250    0.6484099569
C1390      C    0.5027913944    0.8430399825    0.6619899997
C1391      C    0.5289949958    0.8673749812    0.6579576791
C1392      C    0.5278011061    0.8910544371    0.6312092839
C1393      C    0.5000000000    0.6084622687    0.8915377313
C1394      C    0.4736637704    0.8675719403    0.6127164527
C1395      C    0.4750013531    0.8435515367    0.6391750676
C1396      C    0.5054330582    0.6782639382    0.7843645808
O1397      O    0.5081935303    0.6483413672    0.7754117023
N1398      N    0.5020120365    0.6880246733    0.8174346227
C1399      C    0.4983055983    0.7210763244    0.8269961275
O1400      O    0.4926695146    0.7297475747    0.8566551207
C1401      C    0.5014594191    0.6620621657    0.8430641231
C1402      C    0.5306643089    0.6419407094    0.8489605238
C1403      C    0.5298892820    0.6154395931    0.8729739235
C1404      C    0.4708127438    0.6285723691    0.8856987093
C1405      C    0.4716386844    0.6553636660    0.8620621099
H1406      H    0.4547052997    0.8251906964    0.6414375222
H1407      H    0.5537395197    0.6462672040    0.8347156401
C1408      C    0.5000000000    0.8915377313    0.6084622687
H1409      H    0.4523332047    0.8673978180    0.5953682604
H1410      H    0.5523772420    0.6001251691    0.8769256138
H1411      H    0.4472525707    0.6238039921    0.8989122368
O1412      O    0.4433125874    0.6749346810    0.8583891867
H1413      H    0.4483997992    0.6981783282    0.8624524090
H1414      H    0.5116966530    0.6708261413    0.7148960266
H1415      H    0.5127735582    0.7148685574    0.6709220416
H1416      H    0.4966567816    0.8348596308    0.7907100409
H1417      H    0.4948817268    0.7907808807    0.8346258072
O1418      O    0.5555506550    0.8689077109    0.6801216136
H1419      H    0.5475991341    0.8711233708    0.7028089392
H1420      H    0.5487620178    0.9085507928    0.6285570093
C1329      C    0.5393055484    1.2262645214    0.7991220894
C1330      C    0.5385070442    1.2006059306    0.7742505766
C1331      C    0.5213958918    1.2051723414    0.7430421569
C1332      C    0.5052330996    1.2366740852    0.7379005476
C1333      C    0.4883033810    1.2413871782    0.7067268708
C1334      C    0.4720562898    1.2729815462    0.7017230860
C1335      C    0.4725885601    1.2985175593    0.7267148903
C1336      C    0.4894643854    1.2938686127    0.7580309574
C1337      C    0.5058887759    1.2624718884    0.7630415157
C1338      C    0.5229172105    1.2577970248    0.7941582870
C1339      C    0.5237285856    1.2854110681    0.8207092882
O1340      O    0.5412413911    1.2808702110    0.8463869959
N1341      N    0.5059307579    1.3145331495    0.8149738692
C1342      C    0.4895800618    1.3210050022    0.7851156398
O1343      O    0.4745985331    1.3478923957    0.7791465724
C1344      C    0.5044002842    1.3397902323    0.8412597506
C1345      C    0.5338365455    1.3575956742    0.8518216279
C1346      C    0.5315498384    1.3834824806    0.8763626726
C1347      C    0.5000000000    1.1084622687    0.6084622687
C1348      C    0.4707207503    1.3735164618    0.8813390257
C1349      C    0.4728416047    1.3479139503    0.8564625188
C1350      C    0.4877647696    1.2139516058    0.6799477516
O1351      O    0.4727772049    1.2198777833    0.6530518815
N1352      N    0.5039804372    1.1840487575    0.6865412932
C1353      C    0.5198770302    1.1775048100    0.7165753868
O1354      O    0.5323764095    1.1495447607    0.7235476933
C1355      C    0.5034016151    1.1581391799    0.6608588627
C1356      C    0.5199560264    1.1635700610    0.6294101246
C1357      C    0.5182530624    1.1389432581    0.6035224115
C1358      C    0.4834796695    1.1029868103    0.6398868495
C1359      C    0.4855165901    1.1273320839    0.6659694723
H1360      H    0.4498772252    1.3349427850    0.8488103892
H1361      H    0.5336185273    1.1869090175    0.6246425463
C1362      C    0.5000000000    1.3915377313    0.8915377313
H1363      H    0.4463197430    1.3795442362    0.8924853215
H1364      H    0.5308195351    1.1436689608    0.5795305944
H1365      H    0.4687883516    1.0803044882    0.6445872671
O1366      O    0.4703869521    1.1202479512    0.6962975431
H1367      H    0.4864065793    1.1214095271    0.7143163921
H1368      H    0.4587426081    1.2777864923    0.6781436224
H1369      H    0.4596145552    1.3222428973    0.7217036185
H1370      H    0.5527669415    1.2215243339    0.8226252560
H1371      H    0.5513075824    1.1768079191    0.7793471544
O1372      O    0.5650448490    1.3497306619    0.8390554354
H1373      H    0.5698125145    1.3262552030    0.8420592286
H1374      H    0.5544807190    1.3969997529    0.8829940306
C1283      C   -0.2650999144    0.2904865252    0.4484819196
C1284      C   -0.2898003385    0.2646568456    0.4479253715
C1285      C   -0.2910219310    0.2392364293    0.4732219966
C1286      C   -0.2664130438    0.2409876766    0.4991327602
C1287      C   -0.2676722169    0.2157862659    0.5245085384
C1288      C   -0.2428884969    0.2175931291    0.5503873404
C1289      C   -0.2180009601    0.2432334098    0.5507721542
C1290      C   -0.2166004104    0.2684999805    0.5253410491
C1291      C   -0.2414072913    0.2669206954    0.4995972127
C1292      C   -0.2402272590    0.2921825709    0.4742887049
C1293      C   -0.2137184656    0.3198388219    0.4750403892
O1294      O   -0.2155334638    0.3427906708    0.4536726371
N1295      N   -0.1894401698    0.3189471884    0.4996883641
C1296      C   -0.1895716700    0.2956923120    0.5253776115
O1297      O   -0.1685189664    0.2955579345    0.5486106378
C1298      C   -0.1625864794    0.3436364622    0.4989608936
C1299      C   -0.1692173997    0.3786347019    0.5040828673
C1300      C   -0.1423865281    0.4022316812    0.5050344645
C1301      C   -0.3915377313    0.1084622687    0.5000000000
C1302      C   -0.1018687002    0.3567241878    0.4944686120
C1303      C   -0.1286078800    0.3329843491    0.4939552492
C1304      C   -0.2943987069    0.1882980643    0.5240443559
O1305      O   -0.2942857445    0.1672154094    0.5472530483
N1306      N   -0.3175195688    0.1881096194    0.4982375111
C1307      C   -0.3170150844    0.2110952813    0.4723729303
O1308      O   -0.3363473517    0.2094398057    0.4476720246
C1309      C   -0.3429062838    0.1619043264    0.4980768939
C1310      C   -0.3676209488    0.1606011344    0.5241547227
C1311      C   -0.3916740294    0.1341396990    0.5250463208
C1312      C   -0.3668815324    0.1097551922    0.4739077321
C1313      C   -0.3431079045    0.1364094607    0.4726792406
H1314      H   -0.1226812590    0.3064344331    0.4901941231
H1315      H   -0.3679961067    0.1795476705    0.5440290440
C1316      C   -0.1084622687    0.3915377313    0.5000000000
H1317      H   -0.0760275474    0.3480571051    0.4908492708
H1318      H   -0.4101929246    0.1333924799    0.5453526738
H1319      H   -0.3654841541    0.0903759094    0.4545452112
O1320      O   -0.3207876659    0.1373331602    0.4462248178
H1321      H   -0.3225250404    0.1582509596    0.4343049257
H1322      H   -0.2428615611    0.1987916758    0.5704581490
H1323      H   -0.1994699202    0.2434164360    0.5710920058
H1324      H   -0.2652370672    0.3093866571    0.4285108524
H1325      H   -0.3082024027    0.2643574762    0.4274938113
O1326      O   -0.2016006051    0.3903867025    0.5075485250
H1327      H   -0.2152076866    0.3835221183    0.4888248664
H1328      H   -0.1485267941    0.4285205776    0.5099035412
C1237      C   -0.2991220894    0.7262645214    0.5393055484
C1238      C   -0.2742505766    0.7006059306    0.5385070442
C1239      C   -0.2430421569    0.7051723414    0.5213958918
C1240      C   -0.2379005476    0.7366740852    0.5052330996
C1241      C   -0.2067268708    0.7413871782    0.4883033810
C1242      C   -0.2017230860    0.7729815462    0.4720562898
C1243      C   -0.2267148903    0.7985175593    0.4725885601
C1244      C   -0.2580309574    0.7938686127    0.4894643854
C1245      C   -0.2630415157    0.7624718884    0.5058887759
C1246      C   -0.2941582870    0.7577970248    0.5229172105
C1247      C   -0.3207092882    0.7854110681    0.5237285856
O1248      O   -0.3463869959    0.7808702110    0.5412413911
N1249      N   -0.3149738692    0.8145331495    0.5059307579
C1250      C   -0.2851156398    0.8210050022    0.4895800618
O1251      O   -0.2791465724    0.8478923957    0.4745985331
C1252      C   -0.3412597506    0.8397902323    0.5044002842
C1253      C   -0.3518216279    0.8575956742    0.5338365455
C1254      C   -0.3763626726    0.8834824806    0.5315498384
C1255      C   -0.1084622687    0.6084622687    0.5000000000
C1256      C   -0.3813390257    0.8735164618    0.4707207503
C1257      C   -0.3564625188    0.8479139503    0.4728416047
C1258      C   -0.1799477516    0.7139516058    0.4877647696
O1259      O   -0.1530518815    0.7198777833    0.4727772049
N1260      N   -0.1865412932    0.6840487575    0.5039804372
C1261      C   -0.2165753868    0.6775048100    0.5198770302
O1262      O   -0.2235476933    0.6495447607    0.5323764095
C1263      C   -0.1608588627    0.6581391799    0.5034016151
C1264      C   -0.1294101246    0.6635700610    0.5199560264
C1265      C   -0.1035224115    0.6389432581    0.5182530624
C1266      C   -0.1398868495    0.6029868103    0.4834796695
C1267      C   -0.1659694723    0.6273320839    0.4855165901
H1268      H   -0.3488103892    0.8349427850    0.4498772252
H1269      H   -0.1246425463    0.6869090175    0.5336185273
C1270      C   -0.3915377313    0.8915377313    0.5000000000
H1271      H   -0.3924853215    0.8795442362    0.4463197430
H1272      H   -0.0795305944    0.6436689608    0.5308195351
H1273      H   -0.1445872671    0.5803044882    0.4687883516
O1274      O   -0.1962975431    0.6202479512    0.4703869521
H1275      H   -0.2143163921    0.6214095271    0.4864065793
H1276      H   -0.1781436224    0.7777864923    0.4587426081
H1277      H   -0.2217036185    0.8222428973    0.4596145552
H1278      H   -0.3226252560    0.7215243339    0.5527669415
H1279      H   -0.2793471544    0.6768079191    0.5513075824
O1280      O   -0.3390554354    0.8497306619    0.5650448490
H1281      H   -0.3420592286    0.8262552030    0.5698125145
H1282      H   -0.3829940306    0.8969997529    0.5544807190
C1191      C    0.2904865252    0.2650999144    0.4484819196
C1192      C    0.2646568456    0.2898003385    0.4479253715
C1193      C    0.2392364293    0.2910219310    0.4732219966
C1194      C    0.2409876766    0.2664130438    0.4991327602
C1195      C    0.2157862659    0.2676722169    0.5245085384
C1196      C    0.2175931291    0.2428884969    0.5503873404
C1197      C    0.2432334098    0.2180009601    0.5507721542
C1198      C    0.2684999805    0.2166004104    0.5253410491
C1199      C    0.2669206954    0.2414072913    0.4995972127
C1200      C    0.2921825709    0.2402272590    0.4742887049
C1201      C    0.3198388219    0.2137184656    0.4750403892
O1202      O    0.3427906708    0.2155334638    0.4536726371
N1203      N    0.3189471884    0.1894401698    0.4996883641
C1204      C    0.2956923120    0.1895716700    0.5253776115
O1205      O    0.2955579345    0.1685189664    0.5486106378
C1206      C    0.3436364622    0.1625864794    0.4989608936
C1207      C    0.3786347019    0.1692173997    0.5040828673
C1208      C    0.4022316812    0.1423865281    0.5050344645
C1209      C    0.1084622687    0.3915377313    0.5000000000
C1210      C    0.3567241878    0.1018687002    0.4944686120
C1211      C    0.3329843491    0.1286078800    0.4939552492
C1212      C    0.1882980643    0.2943987069    0.5240443559
O1213      O    0.1672154094    0.2942857445    0.5472530483
N1214      N    0.1881096194    0.3175195688    0.4982375111
C1215      C    0.2110952813    0.3170150844    0.4723729303
O1216      O    0.2094398057    0.3363473517    0.4476720246
C1217      C    0.1619043264    0.3429062838    0.4980768939
C1218      C    0.1606011344    0.3676209488    0.5241547227
C1219      C    0.1341396990    0.3916740294    0.5250463208
C1220      C    0.1097551922    0.3668815324    0.4739077321
C1221      C    0.1364094607    0.3431079045    0.4726792406
H1222      H    0.3064344331    0.1226812590    0.4901941231
H1223      H    0.1795476705    0.3679961067    0.5440290440
C1224      C    0.3915377313    0.1084622687    0.5000000000
H1225      H    0.3480571051    0.0760275474    0.4908492708
H1226      H    0.1333924799    0.4101929246    0.5453526738
H1227      H    0.0903759094    0.3654841541    0.4545452112
O1228      O    0.1373331602    0.3207876659    0.4462248178
H1229      H    0.1582509596    0.3225250404    0.4343049257
H1230      H    0.1987916758    0.2428615611    0.5704581490
H1231      H    0.2434164360    0.1994699202    0.5710920058
H1232      H    0.3093866571    0.2652370672    0.4285108524
H1233      H    0.2643574762    0.3082024027    0.4274938113
O1234      O    0.3903867025    0.2016006051    0.5075485250
H1235      H    0.3835221183    0.2152076866    0.4888248664
H1236      H    0.4285205776    0.1485267941    0.5099035412
C1145      C    0.2262645214    0.7991220894    0.5393055484
C1146      C    0.2006059306    0.7742505766    0.5385070442
C1147      C    0.2051723414    0.7430421569    0.5213958918
C1148      C    0.2366740852    0.7379005476    0.5052330996
C1149      C    0.2413871782    0.7067268708    0.4883033810
C1150      C    0.2729815462    0.7017230860    0.4720562898
C1151      C    0.2985175593    0.7267148903    0.4725885601
C1152      C    0.2938686127    0.7580309574    0.4894643854
C1153      C    0.2624718884    0.7630415157    0.5058887759
C1154      C    0.2577970248    0.7941582870    0.5229172105
C1155      C    0.2854110681    0.8207092882    0.5237285856
O1156      O    0.2808702110    0.8463869959    0.5412413911
N1157      N    0.3145331495    0.8149738692    0.5059307579
C1158      C    0.3210050022    0.7851156398    0.4895800618
O1159      O    0.3478923957    0.7791465724    0.4745985331
C1160      C    0.3397902323    0.8412597506    0.5044002842
C1161      C    0.3575956742    0.8518216279    0.5338365455
C1162      C    0.3834824806    0.8763626726    0.5315498384
C1163      C    0.1084622687    0.6084622687    0.5000000000
C1164      C    0.3735164618    0.8813390257    0.4707207503
C1165      C    0.3479139503    0.8564625188    0.4728416047
C1166      C    0.2139516058    0.6799477516    0.4877647696
O1167      O    0.2198777833    0.6530518815    0.4727772049
N1168      N    0.1840487575    0.6865412932    0.5039804372
C1169      C    0.1775048100    0.7165753868    0.5198770302
O1170      O    0.1495447607    0.7235476933    0.5323764095
C1171      C    0.1581391799    0.6608588627    0.5034016151
C1172      C    0.1635700610    0.6294101246    0.5199560264
C1173      C    0.1389432581    0.6035224115    0.5182530624
C1174      C    0.1029868103    0.6398868495    0.4834796695
C1175      C    0.1273320839    0.6659694723    0.4855165901
H1176      H    0.3349427850    0.8488103892    0.4498772252
H1177      H    0.1869090175    0.6246425463    0.5336185273
C1178      C    0.3915377313    0.8915377313    0.5000000000
H1179      H    0.3795442362    0.8924853215    0.4463197430
H1180      H    0.1436689608    0.5795305944    0.5308195351
H1181      H    0.0803044882    0.6445872671    0.4687883516
O1182      O    0.1202479512    0.6962975431    0.4703869521
H1183      H    0.1214095271    0.7143163921    0.4864065793
H1184      H    0.2777864923    0.6781436224    0.4587426081
H1185      H    0.3222428973    0.7217036185    0.4596145552
H1186      H    0.2215243339    0.8226252560    0.5527669415
H1187      H    0.1768079191    0.7793471544    0.5513075824
O1188      O    0.3497306619    0.8390554354    0.5650448490
H1189      H    0.3262552030    0.8420592286    0.5698125145
H1190      H    0.3969997529    0.8829940306    0.5544807190
C1099      C   -0.2737354786    0.4606944516    0.2991220894
C1100      C   -0.2993940694    0.4614929558    0.2742505766
C1101      C   -0.2948276586    0.4786041082    0.2430421569
C1102      C   -0.2633259148    0.4947669004    0.2379005476
C1103      C   -0.2586128218    0.5116966190    0.2067268708
C1104      C   -0.2270184538    0.5279437102    0.2017230860
C1105      C   -0.2014824407    0.5274114399    0.2267148903
C1106      C   -0.2061313873    0.5105356146    0.2580309574
C1107      C   -0.2375281116    0.4941112241    0.2630415157
C1108      C   -0.2422029752    0.4770827895    0.2941582870
C1109      C   -0.2145889319    0.4762714144    0.3207092882
O1110      O   -0.2191297890    0.4587586089    0.3463869959
N1111      N   -0.1854668505    0.4940692421    0.3149738692
C1112      C   -0.1789949978    0.5104199382    0.2851156398
O1113      O   -0.1521076043    0.5254014669    0.2791465724
C1114      C   -0.1602097677    0.4955997158    0.3412597506
C1115      C   -0.1424043258    0.4661634545    0.3518216279
C1116      C   -0.1165175194    0.4684501616    0.3763626726
C1117      C   -0.3915377313    0.5000000000    0.1084622687
C1118      C   -0.1264835382    0.5292792497    0.3813390257
C1119      C   -0.1520860497    0.5271583953    0.3564625188
C1120      C   -0.2860483942    0.5122352304    0.1799477516
O1121      O   -0.2801222167    0.5272227951    0.1530518815
N1122      N   -0.3159512425    0.4960195628    0.1865412932
C1123      C   -0.3224951900    0.4801229698    0.2165753868
O1124      O   -0.3504552393    0.4676235905    0.2235476933
C1125      C   -0.3418608201    0.4965983849    0.1608588627
C1126      C   -0.3364299390    0.4800439736    0.1294101246
C1127      C   -0.3610567419    0.4817469376    0.1035224115
C1128      C   -0.3970131897    0.5165203305    0.1398868495
C1129      C   -0.3726679161    0.5144834099    0.1659694723
H1130      H   -0.1650572150    0.5501227748    0.3488103892
H1131      H   -0.3130909825    0.4663814727    0.1246425463
C1132      C   -0.1084622687    0.5000000000    0.3915377313
H1133      H   -0.1204557638    0.5536802570    0.3924853215
H1134      H   -0.3563310392    0.4691804649    0.0795305944
H1135      H   -0.4196955118    0.5312116484    0.1445872671
O1136      O   -0.3797520488    0.5296130479    0.1962975431
H1137      H   -0.3785904729    0.5135934207    0.2143163921
H1138      H   -0.2222135077    0.5412573919    0.1781436224
H1139      H   -0.1777571027    0.5403854448    0.2217036185
H1140      H   -0.2784756661    0.4472330585    0.3226252560
H1141      H   -0.3231920809    0.4486924176    0.2793471544
O1142      O   -0.1502693381    0.4349551510    0.3390554354
H1143      H   -0.1737447970    0.4301874855    0.3420592286
H1144      H   -0.1030002471    0.4455192810    0.3829940306
C1053      C    0.2008779106    0.4606944516    0.2262645214
C1054      C    0.2257494234    0.4614929558    0.2006059306
C1055      C    0.2569578431    0.4786041082    0.2051723414
C1056      C    0.2620994524    0.4947669004    0.2366740852
C1057      C    0.2932731292    0.5116966190    0.2413871782
C1058      C    0.2982769140    0.5279437102    0.2729815462
C1059      C    0.2732851097    0.5274114399    0.2985175593
C1060      C    0.2419690426    0.5105356146    0.2938686127
C1061      C    0.2369584843    0.4941112241    0.2624718884
C1062      C    0.2058417130    0.4770827895    0.2577970248
C1063      C    0.1792907118    0.4762714144    0.2854110681
O1064      O    0.1536130041    0.4587586089    0.2808702110
N1065      N    0.1850261308    0.4940692421    0.3145331495
C1066      C    0.2148843602    0.5104199382    0.3210050022
O1067      O    0.2208534276    0.5254014669    0.3478923957
C1068      C    0.1587402494    0.4955997158    0.3397902323
C1069      C    0.1481783721    0.4661634545    0.3575956742
C1070      C    0.1236373274    0.4684501616    0.3834824806
C1071      C    0.3915377313    0.5000000000    0.1084622687
C1072      C    0.1186609743    0.5292792497    0.3735164618
C1073      C    0.1435374812    0.5271583953    0.3479139503
C1074      C    0.3200522484    0.5122352304    0.2139516058
O1075      O    0.3469481185    0.5272227951    0.2198777833
N1076      N    0.3134587068    0.4960195628    0.1840487575
C1077      C    0.2834246132    0.4801229698    0.1775048100
O1078      O    0.2764523067    0.4676235905    0.1495447607
C1079      C    0.3391411373    0.4965983849    0.1581391799
C1080      C    0.3705898754    0.4800439736    0.1635700610
C1081      C    0.3964775885    0.4817469376    0.1389432581
C1082      C    0.3601131505    0.5165203305    0.1029868103
C1083      C    0.3340305277    0.5144834099    0.1273320839
H1084      H    0.1511896108    0.5501227748    0.3349427850
H1085      H    0.3753574537    0.4663814727    0.1869090175
C1086      C    0.1084622687    0.5000000000    0.3915377313
H1087      H    0.1075146785    0.5536802570    0.3795442362
H1088      H    0.4204694056    0.4691804649    0.1436689608
H1089      H    0.3554127329    0.5312116484    0.0803044882
O1090      O    0.3037024569    0.5296130479    0.1202479512
H1091      H    0.2856836079    0.5135934207    0.1214095271
H1092      H    0.3218563776    0.5412573919    0.2777864923
H1093      H    0.2782963815    0.5403854448    0.3222428973
H1094      H    0.1773747440    0.4472330585    0.2215243339
H1095      H    0.2206528456    0.4486924176    0.1768079191
O1096      O    0.1609445646    0.4349551510    0.3497306619
H1097      H    0.1579407714    0.4301874855    0.3262552030
H1098      H    0.1170059694    0.4455192810    0.3969997529
C1007      C    0.2918872598    0.4500553828    0.7334993509
C1008      C    0.2660733715    0.4494680910    0.7087831357
C1009      C    0.2399639811    0.4740775434    0.7082505173
C1010      C    0.2410087928    0.4993376832    0.7335658401
C1011      C    0.2151161255    0.5240333103    0.7329979235
C1012      C    0.2162174808    0.5492582225    0.7584871514
C1013      C    0.2418468536    0.5496635190    0.7833855960
C1014      C    0.2678062369    0.5249105037    0.7840933331
C1015      C    0.2669286392    0.4998273746    0.7585847649
C1016      C    0.2928798613    0.4752028200    0.7590754506
C1017      C    0.3205149284    0.4759856016    0.7856054279
O1018      O    0.3440470969    0.4553177058    0.7832101101
N1019      N    0.3189525938    0.4999200953    0.8105544249
C1020      C    0.2949974970    0.5249515534    0.8111231450
O1021      O    0.2942299538    0.5475821046    0.8328090143
C1022      C    0.3436627707    0.4991334406    0.8373872121
C1023      C    0.3785037802    0.5054004887    0.8309135219
C1024      C    0.4020757274    0.5062621043    0.8577694257
C1025      C    0.1084622687    0.5000000000    0.6084622687
C1026      C    0.3568926333    0.4933299782    0.8979628543
C1027      C    0.3331658207    0.4928997894    0.8712106484
C1028      C    0.1876410257    0.5235484580    0.7062583316
O1029      O    0.1659258800    0.5461544582    0.7070037848
N1030      N    0.1881561198    0.4983942216    0.6824339309
C1031      C    0.2118470859    0.4731698387    0.6822331109
O1032      O    0.2108666276    0.4489756417    0.6622258264
C1033      C    0.1619555717    0.4982111337    0.6570424709
C1034      C    0.1599237030    0.5249152534    0.6330564826
C1035      C    0.1334385769    0.5257397007    0.6090270927
C1036      C    0.1104842491    0.4732827825    0.6323894107
C1037      C    0.1371713267    0.4721347338    0.6561302295
H1038      H    0.3067320877    0.4882451670    0.8770210865
H1039      H    0.1783143395    0.5453077139    0.6332372243
C1040      C    0.3915377313    0.5000000000    0.8915377313
H1041      H    0.3483385944    0.4887609572    0.9236909633
H1042      H    0.1321241245    0.5465210827    0.5910754307
H1043      H    0.0916472944    0.4533615749    0.6332444609
O1044      O    0.1388333292    0.4451099200    0.6777121651
H1045      H    0.1600714890    0.4338244015    0.6756544302
H1046      H    0.1968692412    0.5687940664    0.7590608735
H1047      H    0.2414760369    0.5694614747    0.8024704789
H1048      H    0.3113313456    0.4306249698    0.7328182444
H1049      H    0.2663310217    0.4295517410    0.6898240518
O1050      O    0.3901433106    0.5100816507    0.7986427868
H1051      H    0.3837929360    0.4915583557    0.7845214956
H1052      H    0.4282178791    0.5120225253    0.8517759043
C961       C   -0.2982362005    0.4591044752    0.7271504102
C962       C   -0.2733821317    0.4598852062    0.7014743754
C963       C   -0.2425603620    0.4777781435    0.7056541364
C964       C   -0.2377846686    0.4947423658    0.7367899643
C965       C   -0.2069936617    0.5124564301    0.7411203873
C966       C   -0.2023576437    0.5295039119    0.7723469885
C967       C   -0.2273378249    0.5289839209    0.7978946248
C968       C   -0.2582723932    0.5113219954    0.7936271769
C969       C   -0.2629113154    0.4941015164    0.7626020887
C970       C   -0.2936432598    0.4762908855    0.7583120521
C971       C   -0.3201766000    0.4755033849    0.7859437563
O972       O   -0.3454601424    0.4573317079    0.7817970646
N973       N   -0.3148427731    0.4940624020    0.8146642455
C974       C   -0.2853545334    0.5112075175    0.8207661086
O975       O   -0.2797243683    0.5269074142    0.8473145998
C976       C   -0.3411622060    0.4955694066    0.8398877768
C977       C   -0.3510757123    0.4663074915    0.8583415898
C978       C   -0.3756675902    0.4686228058    0.8841775630
C979       C   -0.1084622687    0.5000000000    0.6084622687
C980       C   -0.3819837878    0.5290921921    0.8728716998
C981       C   -0.3570602619    0.5269563378    0.8473162072
C982       C   -0.1802262782    0.5129802801    0.7136730791
O983       O   -0.1536694355    0.5286854497    0.7192602294
N984       N   -0.1864527719    0.4959664541    0.6841372787
C985       C   -0.2161268449    0.4792697436    0.6779533519
O986       O   -0.2228145641    0.4660049363    0.6502778899
C987       C   -0.1607830701    0.4965399769    0.6582149725
C988       C   -0.1289777034    0.4808081774    0.6640024822
C989       C   -0.1031279101    0.4825381593    0.6393377595
C990       C   -0.1402427204    0.5156972843    0.6026309394
C991       C   -0.1662799312    0.5136229860    0.6270216249
H992       H   -0.3499140329    0.5497920346    0.8338391413
H993       H   -0.1239152279    0.4677731123    0.6876363359
C994       C   -0.3915377313    0.5000000000    0.8915377313
H995       H   -0.3936677629    0.5533682443    0.8783617948
H996       H   -0.0788655521    0.4706120820    0.6443340032
H997       H   -0.1452609345    0.5297766505    0.5796308208
O998       O   -0.1969330327    0.5279189445    0.6196124616
H999       H   -0.2145939548    0.5115348188    0.6211319644
H1000      H   -0.1790791549    0.5434380042    0.7768509599
H1001      H   -0.2226201115    0.5425862809    0.8213264043
H1002      H   -0.3214351645    0.4450258589    0.7227144255
H1003      H   -0.2781889439    0.4464527389    0.6779661297
O1004      O   -0.3376214394    0.4352226643    0.8511646580
H1005      H   -0.3405134725    0.4298724961    0.8278009591
H1006      H   -0.3817941697    0.4458551981    0.8981996138
C915       C   -0.2650999144   -0.2095134748   -0.0515180804
C916       C   -0.2898003385   -0.2353431544   -0.0520746285
C917       C   -0.2910219310   -0.2607635707   -0.0267780034
C918       C   -0.2664130438   -0.2590123234   -0.0008672398
C919       C   -0.2676722169   -0.2842137341    0.0245085384
C920       C   -0.2428884969   -0.2824068709    0.0503873404
C921       C   -0.2180009601   -0.2567665902    0.0507721542
C922       C   -0.2166004104   -0.2315000195    0.0253410491
C923       C   -0.2414072913   -0.2330793046   -0.0004027873
C924       C   -0.2402272590   -0.2078174291   -0.0257112951
C925       C   -0.2137184656   -0.1801611781   -0.0249596108
O926       O   -0.2155334638   -0.1572093292   -0.0463273629
N927       N   -0.1894401698   -0.1810528116   -0.0003116359
C928       C   -0.1895716700   -0.2043076880    0.0253776115
O929       O   -0.1685189664   -0.2044420655    0.0486106378
C930       C   -0.1625864794   -0.1563635378   -0.0010391064
C931       C   -0.1692173997   -0.1213652981    0.0040828673
C932       C   -0.1423865281   -0.0977683188    0.0050344645
C933       C   -0.3915377313   -0.3915377313   -0.0000000000
C934       C   -0.1018687002   -0.1432758122   -0.0055313880
C935       C   -0.1286078800   -0.1670156509   -0.0060447508
C936       C   -0.2943987069   -0.3117019357    0.0240443559
O937       O   -0.2942857445   -0.3327845906    0.0472530483
N938       N   -0.3175195688   -0.3118903806   -0.0017624889
C939       C   -0.3170150844   -0.2889047187   -0.0276270697
O940       O   -0.3363473517   -0.2905601943   -0.0523279754
C941       C   -0.3429062838   -0.3380956736   -0.0019231061
C942       C   -0.3676209488   -0.3393988656    0.0241547227
C943       C   -0.3916740294   -0.3658603010    0.0250463208
C944       C   -0.3668815324   -0.3902448078   -0.0260922679
C945       C   -0.3431079045   -0.3635905393   -0.0273207594
H946       H   -0.1226812590   -0.1935655669   -0.0098058769
H947       H   -0.3679961067   -0.3204523295    0.0440290440
C948       C   -0.1084622687   -0.1084622687   -0.0000000000
H949       H   -0.0760275474   -0.1519428949   -0.0091507292
H950       H   -0.4101929246   -0.3666075201    0.0453526738
H951       H   -0.3654841541   -0.4096240906   -0.0454547888
O952       O   -0.3207876659   -0.3626668398   -0.0537751822
H953       H   -0.3225250404   -0.3417490404   -0.0656950743
H954       H   -0.2428615611   -0.3012083242    0.0704581490
H955       H   -0.1994699202   -0.2565835640    0.0710920058
H956       H   -0.2652370672   -0.1906133429   -0.0714891476
H957       H   -0.3082024027   -0.2356425238   -0.0725061887
O958       O   -0.2016006051   -0.1096132975    0.0075485250
H959       H   -0.2152076866   -0.1164778817   -0.0111751336
H960       H   -0.1485267941   -0.0714794224    0.0099035412
C869       C   -0.2095134748    0.2650999144   -0.0515180804
C870       C   -0.2353431544    0.2898003385   -0.0520746285
C871       C   -0.2607635707    0.2910219310   -0.0267780034
C872       C   -0.2590123234    0.2664130438   -0.0008672398
C873       C   -0.2842137341    0.2676722169    0.0245085384
C874       C   -0.2824068709    0.2428884969    0.0503873404
C875       C   -0.2567665902    0.2180009601    0.0507721542
C876       C   -0.2315000195    0.2166004104    0.0253410491
C877       C   -0.2330793046    0.2414072913   -0.0004027873
C878       C   -0.2078174291    0.2402272590   -0.0257112951
C879       C   -0.1801611781    0.2137184656   -0.0249596108
O880       O   -0.1572093292    0.2155334638   -0.0463273629
N881       N   -0.1810528116    0.1894401698   -0.0003116359
C882       C   -0.2043076880    0.1895716700    0.0253776115
O883       O   -0.2044420655    0.1685189664    0.0486106378
C884       C   -0.1563635378    0.1625864794   -0.0010391064
C885       C   -0.1213652981    0.1692173997    0.0040828673
C886       C   -0.0977683188    0.1423865281    0.0050344645
C887       C   -0.3915377313    0.3915377313   -0.0000000000
C888       C   -0.1432758122    0.1018687002   -0.0055313880
C889       C   -0.1670156509    0.1286078800   -0.0060447508
C890       C   -0.3117019357    0.2943987069    0.0240443559
O891       O   -0.3327845906    0.2942857445    0.0472530483
N892       N   -0.3118903806    0.3175195688   -0.0017624889
C893       C   -0.2889047187    0.3170150844   -0.0276270697
O894       O   -0.2905601943    0.3363473517   -0.0523279754
C895       C   -0.3380956736    0.3429062838   -0.0019231061
C896       C   -0.3393988656    0.3676209488    0.0241547227
C897       C   -0.3658603010    0.3916740294    0.0250463208
C898       C   -0.3902448078    0.3668815324   -0.0260922679
C899       C   -0.3635905393    0.3431079045   -0.0273207594
H900       H   -0.1935655669    0.1226812590   -0.0098058769
H901       H   -0.3204523295    0.3679961067    0.0440290440
C902       C   -0.1084622687    0.1084622687    0.0000000000
H903       H   -0.1519428949    0.0760275474   -0.0091507292
H904       H   -0.3666075201    0.4101929246    0.0453526738
H905       H   -0.4096240906    0.3654841541   -0.0454547888
O906       O   -0.3626668398    0.3207876659   -0.0537751822
H907       H   -0.3417490404    0.3225250404   -0.0656950743
H908       H   -0.3012083242    0.2428615611    0.0704581490
H909       H   -0.2565835640    0.1994699202    0.0710920058
H910       H   -0.1906133429    0.2652370672   -0.0714891476
H911       H   -0.2356425238    0.3082024027   -0.0725061887
O912       O   -0.1096132975    0.2016006051    0.0075485250
H913       H   -0.1164778817    0.2152076866   -0.0111751336
H914       H   -0.0714794224    0.1485267941    0.0099035412
C823       C    0.2991220894   -0.2262645214    0.0393055484
C824       C    0.2742505766   -0.2006059306    0.0385070442
C825       C    0.2430421569   -0.2051723414    0.0213958918
C826       C    0.2379005476   -0.2366740852    0.0052330996
C827       C    0.2067268708   -0.2413871782   -0.0116966190
C828       C    0.2017230860   -0.2729815462   -0.0279437102
C829       C    0.2267148903   -0.2985175593   -0.0274114399
C830       C    0.2580309574   -0.2938686127   -0.0105356146
C831       C    0.2630415157   -0.2624718884    0.0058887759
C832       C    0.2941582870   -0.2577970248    0.0229172105
C833       C    0.3207092882   -0.2854110681    0.0237285856
O834       O    0.3463869959   -0.2808702110    0.0412413911
N835       N    0.3149738692   -0.3145331495    0.0059307579
C836       C    0.2851156398   -0.3210050022   -0.0104199382
O837       O    0.2791465724   -0.3478923957   -0.0254014669
C838       C    0.3412597506   -0.3397902323    0.0044002842
C839       C    0.3518216279   -0.3575956742    0.0338365455
C840       C    0.3763626726   -0.3834824806    0.0315498384
C841       C    0.1084622687   -0.1084622687   -0.0000000000
C842       C    0.3813390257   -0.3735164618   -0.0292792497
C843       C    0.3564625188   -0.3479139503   -0.0271583953
C844       C    0.1799477516   -0.2139516058   -0.0122352304
O845       O    0.1530518815   -0.2198777833   -0.0272227951
N846       N    0.1865412932   -0.1840487575    0.0039804372
C847       C    0.2165753868   -0.1775048100    0.0198770302
O848       O    0.2235476933   -0.1495447607    0.0323764095
C849       C    0.1608588627   -0.1581391799    0.0034016151
C850       C    0.1294101246   -0.1635700610    0.0199560264
C851       C    0.1035224115   -0.1389432581    0.0182530624
C852       C    0.1398868495   -0.1029868103   -0.0165203305
C853       C    0.1659694723   -0.1273320839   -0.0144834099
H854       H    0.3488103892   -0.3349427850   -0.0501227748
H855       H    0.1246425463   -0.1869090175    0.0336185273
C856       C    0.3915377313   -0.3915377313   -0.0000000000
H857       H    0.3924853215   -0.3795442362   -0.0536802570
H858       H    0.0795305944   -0.1436689608    0.0308195351
H859       H    0.1445872671   -0.0803044882   -0.0312116484
O860       O    0.1962975431   -0.1202479512   -0.0296130479
H861       H    0.2143163921   -0.1214095271   -0.0135934207
H862       H    0.1781436224   -0.2777864923   -0.0412573919
H863       H    0.2217036185   -0.3222428973   -0.0403854448
H864       H    0.3226252560   -0.2215243339    0.0527669415
H865       H    0.2793471544   -0.1768079191    0.0513075824
O866       O    0.3390554354   -0.3497306619    0.0650448490
H867       H    0.3420592286   -0.3262552030    0.0698125145
H868       H    0.3829940306   -0.3969997529    0.0544807190
C777       C    0.2083891918    0.2662241975    0.0502652444
C778       C    0.2342063037    0.2909371891    0.0508464621
C779       C    0.2601795254    0.2916059763    0.0260966424
C780       C    0.2589949748    0.2664303924    0.0007033621
C781       C    0.2847510017    0.2671349493   -0.0241312391
C782       C    0.2835101001    0.2417852677   -0.0494899403
C783       C    0.2578785022    0.2168890482   -0.0498911917
C784       C    0.2320560747    0.2160443552   -0.0249996073
C785       C    0.2330724402    0.2414141557    0.0002186564
C786       C    0.2072574684    0.2407872197    0.0249829365
C787       C    0.1796180992    0.2142615445    0.0242062759
O788       O    0.1562003578    0.2165424352    0.0450165940
N789       N    0.1810479749    0.1894450065    0.0001262381
C790       C    0.2048645906    0.1890147674   -0.0250397649
O791       O    0.2055069310    0.1674541009   -0.0477935110
C792       C    0.1563421059    0.1626079112    0.0009011576
C793       C    0.1214671477    0.1691155502   -0.0051377513
C794       C    0.0978903966    0.1422644502   -0.0060174595
C795       C    0.3915377313    0.3915377313   -0.0000000000
C796       C    0.1431435425    0.1020009699    0.0064432192
C797       C    0.1668727747    0.1287507562    0.0068900872
C798       C    0.3122287654    0.2938718773   -0.0236504597
O799       O    0.3338188436    0.2932514916   -0.0463796952
N800       N    0.3118528270    0.3175571224    0.0016373010
C801       C    0.2883013967    0.3176184065    0.0269927357
O802       O    0.2894156330    0.3374919130    0.0512911742
C803       C    0.3380543729    0.3429475845    0.0018159192
C804       C    0.3399392393    0.3670805751   -0.0247662586
C805       C    0.3664197793    0.3911145511   -0.0256042300
C806       C    0.3896628263    0.3674635140    0.0265955453
C807       C    0.3629821277    0.3437163162    0.0277598146
H808       H    0.1933316982    0.1229151276    0.0113666649
H809       H    0.3214363673    0.3670120689   -0.0450576275
C810       C    0.1084622687    0.1084622687   -0.0000000000
H811       H    0.1517222686    0.0762481737    0.0108229539
H812       H    0.3676198263    0.4091806184   -0.0462931857
H813       H    0.4086093938    0.3664988509    0.0464074985
O814       O    0.3614689278    0.3219855779    0.0546739002
H815       H    0.3402933890    0.3239806918    0.0660876072
H816       H    0.3027502500    0.2413196353   -0.0691351063
H817       H    0.2581397901    0.1979136941   -0.0697958889
H818       H    0.1890526171    0.2667977930    0.0698061040
H819       H    0.2340588318    0.3097860947    0.0708682315
O820       O    0.1098024580    0.2014114447   -0.0095765017
H821       H    0.1162551506    0.2154304177    0.0089891044
H822       H    0.0717169517    0.1482892648   -0.0116004008
C731       C   -0.2662241975    0.0502652444   -0.2083891918
C732       C   -0.2909371891    0.0508464621   -0.2342063037
C733       C   -0.2916059763    0.0260966424   -0.2601795254
C734       C   -0.2664303924    0.0007033621   -0.2589949748
C735       C   -0.2671349493   -0.0241312391   -0.2847510017
C736       C   -0.2417852677   -0.0494899403   -0.2835101001
C737       C   -0.2168890482   -0.0498911917   -0.2578785022
C738       C   -0.2160443552   -0.0249996073   -0.2320560747
C739       C   -0.2414141557    0.0002186564   -0.2330724402
C740       C   -0.2407872197    0.0249829365   -0.2072574684
C741       C   -0.2142615445    0.0242062759   -0.1796180992
O742       O   -0.2165424352    0.0450165940   -0.1562003578
N743       N   -0.1894450065    0.0001262381   -0.1810479749
C744       C   -0.1890147674   -0.0250397649   -0.2048645906
O745       O   -0.1674541009   -0.0477935110   -0.2055069310
C746       C   -0.1626079112    0.0009011576   -0.1563421059
C747       C   -0.1691155502   -0.0051377513   -0.1214671477
C748       C   -0.1422644502   -0.0060174595   -0.0978903966
C749       C   -0.3915377313   -0.0000000000   -0.3915377313
C750       C   -0.1020009699    0.0064432192   -0.1431435425
C751       C   -0.1287507562    0.0068900872   -0.1668727747
C752       C   -0.2938718773   -0.0236504597   -0.3122287654
O753       O   -0.2932514916   -0.0463796952   -0.3338188436
N754       N   -0.3175571224    0.0016373010   -0.3118528270
C755       C   -0.3176184065    0.0269927357   -0.2883013967
O756       O   -0.3374919130    0.0512911742   -0.2894156330
C757       C   -0.3429475845    0.0018159192   -0.3380543729
C758       C   -0.3670805751   -0.0247662586   -0.3399392393
C759       C   -0.3911145511   -0.0256042300   -0.3664197793
C760       C   -0.3674635140    0.0265955453   -0.3896628263
C761       C   -0.3437163162    0.0277598146   -0.3629821277
H762       H   -0.1229151276    0.0113666649   -0.1933316982
H763       H   -0.3670120689   -0.0450576275   -0.3214363673
C764       C   -0.1084622687    0.0000000000   -0.1084622687
H765       H   -0.0762481737    0.0108229539   -0.1517222686
H766       H   -0.4091806184   -0.0462931857   -0.3676198263
H767       H   -0.3664988509    0.0464074985   -0.4086093938
O768       O   -0.3219855779    0.0546739002   -0.3614689278
H769       H   -0.3239806918    0.0660876072   -0.3402933890
H770       H   -0.2413196353   -0.0691351063   -0.3027502500
H771       H   -0.1979136941   -0.0697958889   -0.2581397901
H772       H   -0.2667977930    0.0698061040   -0.1890526171
H773       H   -0.3097860947    0.0708682315   -0.2340588318
O774       O   -0.2014114447   -0.0095765017   -0.1098024580
H775       H   -0.2154304177    0.0089891044   -0.1162551506
H776       H   -0.1482892648   -0.0116004008   -0.0717169517
C685       C    0.2262645214    0.0393055484   -0.2991220894
C686       C    0.2006059306    0.0385070442   -0.2742505766
C687       C    0.2051723414    0.0213958918   -0.2430421569
C688       C    0.2366740852    0.0052330996   -0.2379005476
C689       C    0.2413871782   -0.0116966190   -0.2067268708
C690       C    0.2729815462   -0.0279437102   -0.2017230860
C691       C    0.2985175593   -0.0274114399   -0.2267148903
C692       C    0.2938686127   -0.0105356146   -0.2580309574
C693       C    0.2624718884    0.0058887759   -0.2630415157
C694       C    0.2577970248    0.0229172105   -0.2941582870
C695       C    0.2854110681    0.0237285856   -0.3207092882
O696       O    0.2808702110    0.0412413911   -0.3463869959
N697       N    0.3145331495    0.0059307579   -0.3149738692
C698       C    0.3210050022   -0.0104199382   -0.2851156398
O699       O    0.3478923957   -0.0254014669   -0.2791465724
C700       C    0.3397902323    0.0044002842   -0.3412597506
C701       C    0.3575956742    0.0338365455   -0.3518216279
C702       C    0.3834824806    0.0315498384   -0.3763626726
C703       C    0.1084622687    0.0000000000   -0.1084622687
C704       C    0.3735164618   -0.0292792497   -0.3813390257
C705       C    0.3479139503   -0.0271583953   -0.3564625188
C706       C    0.2139516058   -0.0122352304   -0.1799477516
O707       O    0.2198777833   -0.0272227951   -0.1530518815
N708       N    0.1840487575    0.0039804372   -0.1865412932
C709       C    0.1775048100    0.0198770302   -0.2165753868
O710       O    0.1495447607    0.0323764095   -0.2235476933
C711       C    0.1581391799    0.0034016151   -0.1608588627
C712       C    0.1635700610    0.0199560264   -0.1294101246
C713       C    0.1389432581    0.0182530624   -0.1035224115
C714       C    0.1029868103   -0.0165203305   -0.1398868495
C715       C    0.1273320839   -0.0144834099   -0.1659694723
H716       H    0.3349427850   -0.0501227748   -0.3488103892
H717       H    0.1869090175    0.0336185273   -0.1246425463
C718       C    0.3915377313   -0.0000000000   -0.3915377313
H719       H    0.3795442362   -0.0536802570   -0.3924853215
H720       H    0.1436689608    0.0308195351   -0.0795305944
H721       H    0.0803044882   -0.0312116484   -0.1445872671
O722       O    0.1202479512   -0.0296130479   -0.1962975431
H723       H    0.1214095271   -0.0135934207   -0.2143163921
H724       H    0.2777864923   -0.0412573919   -0.1781436224
H725       H    0.3222428973   -0.0403854448   -0.2217036185
H726       H    0.2215243339    0.0527669415   -0.3226252560
H727       H    0.1768079191    0.0513075824   -0.2793471544
O728       O    0.3497306619    0.0650448490   -0.3390554354
H729       H    0.3262552030    0.0698125145   -0.3420592286
H730       H    0.3969997529    0.0544807190   -0.3829940306
C639       C    0.2904865252   -0.0515180804    0.2349000856
C640       C    0.2646568456   -0.0520746285    0.2101996615
C641       C    0.2392364293   -0.0267780034    0.2089780690
C642       C    0.2409876766   -0.0008672398    0.2335869562
C643       C    0.2157862659    0.0245085384    0.2323277831
C644       C    0.2175931291    0.0503873404    0.2571115031
C645       C    0.2432334098    0.0507721542    0.2819990399
C646       C    0.2684999805    0.0253410491    0.2833995896
C647       C    0.2669206954   -0.0004027873    0.2585927087
C648       C    0.2921825709   -0.0257112951    0.2597727410
C649       C    0.3198388219   -0.0249596108    0.2862815344
O650       O    0.3427906708   -0.0463273629    0.2844665362
N651       N    0.3189471884   -0.0003116359    0.3105598302
C652       C    0.2956923120    0.0253776115    0.3104283300
O653       O    0.2955579345    0.0486106378    0.3314810336
C654       C    0.3436364622   -0.0010391064    0.3374135206
C655       C    0.3786347019    0.0040828673    0.3307826003
C656       C    0.4022316812    0.0050344645    0.3576134719
C657       C    0.1084622687   -0.0000000000    0.1084622687
C658       C    0.3567241878   -0.0055313880    0.3981312998
C659       C    0.3329843491   -0.0060447508    0.3713921200
C660       C    0.1882980643    0.0240443559    0.2056012931
O661       O    0.1672154094    0.0472530483    0.2057142555
N662       N    0.1881096194   -0.0017624889    0.1824804312
C663       C    0.2110952813   -0.0276270697    0.1829849156
O664       O    0.2094398057   -0.0523279754    0.1636526483
C665       C    0.1619043264   -0.0019231061    0.1570937162
C666       C    0.1606011344    0.0241547227    0.1323790512
C667       C    0.1341396990    0.0250463208    0.1083259706
C668       C    0.1097551922   -0.0260922679    0.1331184676
C669       C    0.1364094607   -0.0273207594    0.1568920955
H670       H    0.3064344331   -0.0098058769    0.3773187410
H671       H    0.1795476705    0.0440290440    0.1320038933
C672       C    0.3915377313   -0.0000000000    0.3915377313
H673       H    0.3480571051   -0.0091507292    0.4239724526
H674       H    0.1333924799    0.0453526738    0.0898070754
H675       H    0.0903759094   -0.0454547888    0.1345158459
O676       O    0.1373331602   -0.0537751822    0.1792123341
H677       H    0.1582509596   -0.0656950743    0.1774749596
H678       H    0.1987916758    0.0704581490    0.2571384389
H679       H    0.2434164360    0.0710920058    0.3005300798
H680       H    0.3093866571   -0.0714891476    0.2347629328
H681       H    0.2643574762   -0.0725061887    0.1917975973
O682       O    0.3903867025    0.0075485250    0.2983993949
H683       H    0.3835221183   -0.0111751336    0.2847923134
H684       H    0.4285205776    0.0099035412    0.3514732059
C593       C   -0.2732968165    0.0401056230    0.2013165728
C594       C   -0.2989641805    0.0393159112    0.2261793124
C595       C   -0.2945889830    0.0218116357    0.2571965186
C596       C   -0.2632680288    0.0052460099    0.2621573383
C597       C   -0.2587441517   -0.0120780906    0.2931417993
C598       C   -0.2273315019   -0.0287275058    0.2979638659
C599       C   -0.2017896419   -0.0282013125    0.2729779085
C600       C   -0.2062499633   -0.0109302344    0.2418504667
C601       C   -0.2374630224    0.0058943500    0.2370235735
C602       C   -0.2419475854    0.0233161034    0.2060971028
C603       C   -0.2143246436    0.0241156358    0.1795550001
O604       O   -0.2186701892    0.0419601344    0.1540726038
N605       N   -0.1854013054    0.0059349027    0.1850916760
C606       C   -0.1791122990   -0.0108151433    0.2147670590
O607       O   -0.1523924144   -0.0261578153    0.2205686175
C608       C   -0.1601610673    0.0044159812    0.1587889499
C609       C   -0.1420308792    0.0337686288    0.1485518187
C610       C   -0.1161694167    0.0314673339    0.1239854302
C611       C   -0.3915377313   -0.0000000000    0.3915377313
C612       C   -0.1268065144   -0.0291892588    0.1183379980
C613       C   -0.1523855521   -0.0270606429    0.1432379787
C614       C   -0.2861856342   -0.0126093844    0.3199150084
O615       O   -0.2804270302   -0.0279577114    0.3466433050
N616       N   -0.3159071178    0.0040074869    0.3135028316
C617       C   -0.3222732203    0.0203062245    0.2836465829
O618       O   -0.3500930548    0.0331899829    0.2768144912
C619       C   -0.3418230758    0.0034312448    0.3391788816
C620       C   -0.3362115654    0.0195762193    0.3708082490
C621       C   -0.3608572583    0.0178595336    0.3966770721
C622       C   -0.3971934412   -0.0161106723    0.3599328990
C623       C   -0.3728255594   -0.0140548075    0.3338728845
H624       H   -0.1656100848   -0.0499634593    0.1506367410
H625       H   -0.3127233918    0.0329265543    0.3757250443
C626       C   -0.1084622687   -0.0000000000    0.1084622687
H627       H   -0.1210479904   -0.0535307427    0.1069224520
H628       H   -0.3559944837    0.0301072246    0.4208059610
H629       H   -0.4200363901   -0.0304976947    0.3550718546
O630       O   -0.3800745491   -0.0287692990    0.3033799566
H631       H   -0.3787349725   -0.0125654014    0.2855391083
H632       H   -0.2226753668   -0.0423531307    0.3213945185
H633       H   -0.1782093839   -0.0414911928    0.2778441003
H634       H   -0.2778865698    0.0538773830    0.1779638403
H635       H   -0.3226190187    0.0524340914    0.2212259078
O636       O   -0.1495514264    0.0649189790    0.1616624762
H637       H   -0.1729726001    0.0699785842    0.1587129683
H638       H   -0.1023992427    0.0543193458    0.1176069739
C547       C    0.0051877861    0.3083667419   -0.2170198688
C548       C    0.0042151347    0.2831272253   -0.1917292819
C549       C    0.0035086970    0.2482167358   -0.1999977625
C550       C    0.0039321002    0.2398048573   -0.2347697756
C551       C    0.0034210753    0.2050074104   -0.2431066386
C552       C    0.0037562894    0.1966975175   -0.2780071147
C553       C    0.0044121237    0.2219361816   -0.3032962681
C554       C    0.0048478920    0.2568491844   -0.2950503856
C555       C    0.0047348064    0.2652488425   -0.2602645616
C556       C    0.0053652470    0.3000347064   -0.2519206055
C557       C    0.0064542863    0.3269805683   -0.2791397880
O558       O    0.0096239381    0.3569555969   -0.2703016101
N559       N    0.0048194253    0.3172075006   -0.3122995181
C560       C    0.0049649598    0.2839822256   -0.3221384164
O561       O    0.0049332756    0.2748937709   -0.3521451972
C562       C    0.0031386934    0.3428261701   -0.3382238127
C563       C    0.0306666400    0.3652238498   -0.3441934524
C564       C    0.0292582119    0.3889971335   -0.3708480196
C565       C   -0.0000000000    0.1084622687   -0.1084622687
C566       C   -0.0276173748    0.3695172657   -0.3853382219
C567       C   -0.0261113634    0.3453943349   -0.3589821343
C568       C    0.0027169715    0.1779700846   -0.2159292727
O569       O    0.0026670469    0.1479497834   -0.2249798815
N570       N    0.0023942557    0.1878658021   -0.1827242485
C571       C    0.0017719514    0.2210735283   -0.1730066686
O572       O   -0.0010780345    0.2300507483   -0.1430417057
C573       C    0.0018205532    0.1619439046   -0.1570541380
C574       C    0.0298508478    0.1397588038   -0.1532213818
C575       C    0.0289009140    0.1133198819   -0.1291457877
C576       C   -0.0280094424    0.1306346259   -0.1122390339
C577       C   -0.0269608869    0.1573583370   -0.1359432192
H578       H   -0.0474600120    0.3285350160   -0.3552181582
H579       H    0.0520930080    0.1424513569   -0.1691002069
C580       C    0.0000000000    0.3915377313   -0.3915377313
H581       H   -0.0500975848    0.3709227638   -0.4011067938
H582       H    0.0504549861    0.0964174994   -0.1267820559
H583       H   -0.0508400108    0.1275388914   -0.0973528639
O584       O   -0.0539966150    0.1789254515   -0.1376200428
H585       H   -0.0469717678    0.2017323920   -0.1339935272
H586       H    0.0034166644    0.1702812228   -0.2856488919
H587       H    0.0044929061    0.2142460060   -0.3297005098
H588       H    0.0057055996    0.3347744540   -0.2093751360
H589       H    0.0039280287    0.2908237956   -0.1653312779
O590       O    0.0587889278    0.3647851375   -0.3240009598
H591       H    0.0526697709    0.3675081231   -0.3008063086
H592       H    0.0511780559    0.4049474012   -0.3750463822
C501       C   -0.0550260450   -0.2615055904   -0.2131077988
C502       C   -0.0555040462   -0.2861711134   -0.2389723795
C503       C   -0.0286933055   -0.2891505762   -0.2626349254
C504       C   -0.0013615015   -0.2663378560   -0.2590875112
C505       C    0.0255107600   -0.2693596451   -0.2825263059
C506       C    0.0528187730   -0.2463702113   -0.2789251565
C507       C    0.0531511659   -0.2215068698   -0.2532606805
C508       C    0.0262289596   -0.2183401527   -0.2297602772
C509       C   -0.0009615801   -0.2413612637   -0.2331253322
C510       C   -0.0277762745   -0.2384228267   -0.2096218614
C511       C   -0.0271052488   -0.2119620292   -0.1819176144
O512       O   -0.0500431995   -0.2122823505   -0.1604604425
N513       N   -0.0008748394   -0.1894001434   -0.1810928379
C514       C    0.0262543433   -0.1913135021   -0.2025658559
O515       O    0.0508081141   -0.1718729121   -0.2010881198
C516       C   -0.0014533018   -0.1625023966   -0.1564476205
C517       C    0.0008430218   -0.1693835773   -0.1211991206
C518       C    0.0020079955   -0.1426241093   -0.0975307376
C519       C   -0.0000000000   -0.3915377313   -0.3915377313
C520       C   -0.0027188262   -0.1015903747   -0.1435541377
C521       C   -0.0034317665   -0.1282881845   -0.1673353464
C522       C    0.0250999626   -0.2960566172   -0.3100440254
O523       O    0.0496300845   -0.2975541497   -0.3295161854
N524       N   -0.0021334286   -0.3173881379   -0.3120218115
C525       C   -0.0293939170   -0.3150914504   -0.2908283527
O526       O   -0.0551725948   -0.3327207615   -0.2941867845
C527       C   -0.0022382114   -0.3427658995   -0.3382360579
C528       C    0.0221451615   -0.3691829006   -0.3378369139
C529       C    0.0231948353   -0.3933014710   -0.3642328594
C530       C   -0.0244009909   -0.3651781149   -0.3919482254
C531       C   -0.0258178211   -0.3413152456   -0.3653831982
H532       H   -0.0049895586   -0.1221821269   -0.1940646989
H533       H    0.0406285183   -0.3708520756   -0.3175963606
C534       C    0.0000000000   -0.1084622687   -0.1084622687
H535       H   -0.0039987077   -0.0755839440   -0.1523864983
H536       H    0.0422126054   -0.4131469869   -0.3636534578
H537       H   -0.0422769267   -0.3625244770   -0.4125837678
O538       O   -0.0507117184   -0.3172627434   -0.3661917623
H539       H   -0.0641025681   -0.3181462464   -0.3461278344
H540       H    0.0740659067   -0.2477371587   -0.2963327266
H541       H    0.0746138735   -0.2043853873   -0.2516680969
H542       H   -0.0761879527   -0.2602550999   -0.1955953102
H543       H   -0.0770614407   -0.3031566574   -0.2406882691
O544       O    0.0013218508   -0.2018998520   -0.1093140506
H545       H   -0.0177706553   -0.2142311847   -0.1174543837
H546       H    0.0046718950   -0.1490185044   -0.0709877122
C455       C   -0.0401056230   -0.2267031835    0.2986834272
C456       C   -0.0393159112   -0.2010358195    0.2738206876
C457       C   -0.0218116357   -0.2054110170    0.2428034814
C458       C   -0.0052460099   -0.2367319712    0.2378426617
C459       C    0.0120780906   -0.2412558483    0.2068582007
C460       C    0.0287275058   -0.2726684981    0.2020361341
C461       C    0.0282013125   -0.2982103581    0.2270220915
C462       C    0.0109302344   -0.2937500367    0.2581495333
C463       C   -0.0058943500   -0.2625369776    0.2629764265
C464       C   -0.0233161034   -0.2580524146    0.2939028972
C465       C   -0.0241156358   -0.2856753564    0.3204449999
O466       O   -0.0419601344   -0.2813298108    0.3459273962
N467       N   -0.0059349027   -0.3145986946    0.3149083240
C468       C    0.0108151433   -0.3208877010    0.2852329410
O469       O    0.0261578153   -0.3476075856    0.2794313825
C470       C   -0.0044159812   -0.3398389327    0.3412110501
C471       C   -0.0337686288   -0.3579691208    0.3514481813
C472       C   -0.0314673339   -0.3838305833    0.3760145698
C473       C   -0.0000000000   -0.1084622687    0.1084622687
C474       C    0.0291892588   -0.3731934856    0.3816620020
C475       C    0.0270606429   -0.3476144479    0.3567620213
C476       C    0.0126093844   -0.2138143658    0.1800849916
O477       O    0.0279577114   -0.2195729698    0.1533566950
N478       N   -0.0040074869   -0.1840928822    0.1864971684
C479       C   -0.0203062245   -0.1777267797    0.2163534171
O480       O   -0.0331899829   -0.1499069452    0.2231855088
C481       C   -0.0034312448   -0.1581769242    0.1608211184
C482       C   -0.0195762193   -0.1637884346    0.1291917510
C483       C   -0.0178595336   -0.1391427417    0.1033229279
C484       C    0.0161106723   -0.1028065588    0.1400671010
C485       C    0.0140548075   -0.1271744406    0.1661271155
H486       H    0.0499634593   -0.3343899152    0.3493632590
H487       H   -0.0329265543   -0.1872766082    0.1242749557
C488       C    0.0000000000   -0.3915377313    0.3915377313
H489       H    0.0535307427   -0.3789520096    0.3930775480
H490       H   -0.0301072246   -0.1440055163    0.0791940390
H491       H    0.0304976947   -0.0799636099    0.1449281454
O492       O    0.0287692990   -0.1199254509    0.1966200434
H493       H    0.0125654014   -0.1212650275    0.2144608917
H494       H    0.0423531307   -0.2773246332    0.1786054815
H495       H    0.0414911928   -0.3217906161    0.2221558997
H496       H   -0.0538773830   -0.2221134302    0.3220361597
H497       H   -0.0524340914   -0.1773809813    0.2787740922
O498       O   -0.0649189790   -0.3504485736    0.3383375238
H499       H   -0.0699785842   -0.3270273999    0.3412870317
H500       H   -0.0543193458   -0.3976007573    0.3823930261
C409       C    0.0542410375    0.2122373050    0.2623760843
C410       C    0.0547380199    0.2380941182    0.2870493746
C411       C    0.0282635932    0.2621811691    0.2896043326
C412       C    0.0012456485    0.2590667409    0.2663586263
C413       C   -0.0252945223    0.2829310544    0.2689548966
C414       C   -0.0522867230    0.2797624964    0.2455328714
C415       C   -0.0526317945    0.2541034175    0.2206641328
C416       C   -0.0260403642    0.2301766892    0.2179237407
C417       C    0.0008301269    0.2331110583    0.2413755376
C418       C    0.0273103870    0.2091830046    0.2388616835
C419       C    0.0266197219    0.1814896058    0.2123900379
O420       O    0.0492049062    0.1596697665    0.2130730266
N421       N    0.0007422712    0.1810799550    0.1894130264
C422       C   -0.0260684143    0.2029826936    0.1908966644
O423       O   -0.0503297807    0.2018938512    0.1710671807
C424       C    0.0013564725    0.1564252360    0.1625247812
C425       C   -0.0016104489    0.1212186666    0.1693640313
C426       C   -0.0027258819    0.0975684508    0.1425863961
C427       C    0.0000000000    0.3915377313    0.3915377313
C428       C    0.0033866734    0.1435054972    0.1016390152
C429       C    0.0040529675    0.1672757180    0.1283478128
C430       C   -0.0248707536    0.3104421252    0.2956585174
O431       O   -0.0491082896    0.3303028006    0.2967675345
N432       N    0.0020473945    0.3119885043    0.3174214451
C433       C    0.0289999130    0.2903631489    0.3155566543
O434       O    0.0545446935    0.2933127040    0.3335948420
C435       C    0.0021654770    0.3382009752    0.3428009822
C436       C   -0.0226389225    0.3381936935    0.3688261209
C437       C   -0.0236520483    0.3646060726    0.3929282578
C438       C    0.0248212797    0.3915560882    0.3655702520
C439       C    0.0261947013    0.3649688320    0.3417296118
H440       H    0.0061334749    0.1939760855    0.1222707403
H441       H   -0.0414666380    0.3182503849    0.3701980513
C442       C   -0.0000000000    0.1084622687    0.1084622687
H443       H    0.0052212573    0.1523130460    0.0756573964
H444       H   -0.0429903865    0.3643322412    0.4124682035
H445       H    0.0430637048    0.4119038878    0.3632043569
O446       O    0.0514783487    0.3653776486    0.3180768571
H447       H    0.0645320795    0.3451030457    0.3191710351
H448       H   -0.0732729153    0.2975065251    0.2465633602
H449       H   -0.0738416586    0.2528507918    0.2032026923
H450       H    0.0751384987    0.1943897435    0.2614606665
H451       H    0.0760466768    0.2394685086    0.3043764179
O452       O   -0.0027965275    0.1093468603    0.2018670423
H453       H    0.0162243641    0.1171835569    0.2145020115
H454       H   -0.0059138411    0.0710720451    0.1489341714
loop_
_geom_bond_atom_site_label_1
_geom_bond_atom_site_label_2
_geom_bond_distance
_geom_bond_site_symmetry_2
_ccdc_geom_bond_type
