data_fcu_v1-12c_Hf_1_Ch_dummy_1-diedgenobond
_audit_creation_date              2025-01-03
_audit_creation_method            'tobacco_3.0'
_symmetry_space_group_name_H-M    'P1'
_symmetry_Int_Tables_number       1
_symmetry_cell_setting            triclinic
loop_
_symmetry_equiv_pos_as_xyz
  x,y,z
_cell_length_a                    39.35365716892104
_cell_length_b                    39.35365716892104
_cell_length_c                    39.35365716892104
_cell_angle_alpha                 90.0
_cell_angle_beta                  90.0
_cell_angle_gamma                 90.0
loop_
_atom_site_label
_atom_site_type_symbol
_atom_site_fract_x
_atom_site_fract_y
_atom_site_fract_z
D55        D   -0.0204731904   -0.0021741455    0.0752376369
D56        D   -0.0102873096   -0.0313565420    0.0569064439
D57        D    0.0166869546   -0.0127085501    0.0422081941
D58        D    0.0065010738    0.0164738464    0.0605393872
D59        D   -0.0046560486   -0.0215621449    0.0796673143
D60        D    0.0223182156   -0.0029141530    0.0649690646
D61        D    0.0008698128    0.0066794494    0.0377785168
D62        D   -0.0261044514   -0.0119685425    0.0524767665
Hf9       Hf    0.0000000000   -0.0000000000    0.0630691066
D63        D   -0.0021741455   -0.0752376369    0.0204731904
D64        D   -0.0313565420   -0.0569064439    0.0102873096
D65        D   -0.0127085501   -0.0422081941   -0.0166869546
D66        D    0.0164738464   -0.0605393872   -0.0065010738
D67        D   -0.0215621449   -0.0796673143    0.0046560486
D68        D   -0.0029141530   -0.0649690646   -0.0223182156
D69        D    0.0066794494   -0.0377785168   -0.0008698128
D70        D   -0.0119685425   -0.0524767665    0.0261044514
Hf36      Hf    0.0000000000   -0.0630691066   -0.0000000000
D71        D   -0.0033871698    0.0767709400    0.0222926175
D72        D    0.0013855996    0.0809332510   -0.0130810014
D73        D    0.0128130320    0.0469512648   -0.0155377219
D74        D    0.0080402627    0.0427889538    0.0198358970
D75        D   -0.0178681466    0.0733909406    0.0016873888
D76        D   -0.0064407141    0.0394089544   -0.0007693317
D77        D    0.0272940088    0.0503312643    0.0050675068
D78        D    0.0158665764    0.0843132505    0.0075242273
Hf37      Hf    0.0000000000    0.0630691066    0.0000000000
D79        D   -0.0752376369   -0.0021741455    0.0204731904
D80        D   -0.0774554379   -0.0058653513   -0.0152038811
D81        D   -0.0422081941   -0.0127085501   -0.0166869546
D82        D   -0.0399903931   -0.0090173443    0.0189901169
D83        D   -0.0796673143   -0.0215621449    0.0046560486
D84        D   -0.0444200705   -0.0284053438    0.0031729751
D85        D   -0.0377785168    0.0066794494   -0.0008698128
D86        D   -0.0730257607    0.0135226482    0.0006132607
Hf38      Hf   -0.0630691066   -0.0000000000   -0.0000000000
D87        D    0.0767709400    0.0222926175    0.0033871698
D88        D    0.0482221796    0.0049723718    0.0166677737
D89        D    0.0469512648   -0.0155377219   -0.0128130320
D90        D    0.0755000253    0.0017825238   -0.0260936360
D91        D    0.0733909406    0.0016873888    0.0178681466
D92        D    0.0721200258   -0.0188227050   -0.0116126591
D93        D    0.0503312643    0.0050675068   -0.0272940088
D94        D    0.0516021791    0.0255776006    0.0021867969
Hf39      Hf    0.0630691066    0.0000000000    0.0000000000
D100       D    0.0007693317   -0.0064407141   -0.0394089544
D101       D   -0.0050675068    0.0272940088   -0.0503312643
D102       D   -0.0075242273    0.0158665764   -0.0843132505
D95        D   -0.0222926175   -0.0033871698   -0.0767709400
D96        D    0.0130810014    0.0013855996   -0.0809332510
D97        D    0.0155377219    0.0128130320   -0.0469512648
D98        D   -0.0198358970    0.0080402627   -0.0427889538
D99        D   -0.0016873888   -0.0178681466   -0.0733909406
Hf40      Hf    0.0000000000    0.0000000000   -0.0630691066
H16        H   -0.0473399459   -0.0473399459    0.0473399459
O17        O   -0.0295067875   -0.0295067875    0.0295067875
H18        H    0.0473399459    0.0473399459    0.0473399459
O19        O    0.0295067875    0.0295067875    0.0295067875
H51        H   -0.0473399459    0.0473399459   -0.0473399459
O52        O   -0.0295067875    0.0295067875   -0.0295067875
H53        H    0.0473399459   -0.0473399459   -0.0473399459
O54        O    0.0295067875   -0.0295067875   -0.0295067875
O10        O    0.0295067875   -0.0295067875    0.0295067875
O11        O   -0.0295067875    0.0295067875    0.0295067875
O41        O    0.0295067875    0.0295067875   -0.0295067875
O42        O   -0.0295067875   -0.0295067875   -0.0295067875
O1         O    0.0000000000    0.0896841680    0.0501300296
O8         O    0.0000000000    0.0501300296    0.0896841680
C12        C    0.0000000000    0.0807904583    0.0807904583
O2         O   -0.0000000000   -0.0896841680    0.0501300296
O7         O   -0.0000000000   -0.0501300296    0.0896841680
C13        C   -0.0000000000   -0.0807904583    0.0807904583
O3         O   -0.0501300296   -0.0000000000    0.0896841680
O6         O   -0.0896841680   -0.0000000000    0.0501300296
C14        C   -0.0807904583   -0.0000000000    0.0807904583
O4         O    0.0501300296   -0.0000000000    0.0896841680
O5         O    0.0896841680    0.0000000000    0.0501300296
C15        C    0.0807904583    0.0000000000    0.0807904583
O20        O   -0.0000000000   -0.0896841680   -0.0501300296
O34        O    0.0000000000   -0.0501300296   -0.0896841680
C43        C    0.0000000000   -0.0807904583   -0.0807904583
O21        O    0.0000000000    0.0896841680   -0.0501300296
O35        O    0.0000000000    0.0501300296   -0.0896841680
C44        C    0.0000000000    0.0807904583   -0.0807904583
O22        O   -0.0896841680   -0.0501300296   -0.0000000000
O30        O   -0.0501300296   -0.0896841680   -0.0000000000
C45        C   -0.0807904583   -0.0807904583   -0.0000000000
O23        O    0.0896841680   -0.0501300296   -0.0000000000
O33        O    0.0501300296   -0.0896841680   -0.0000000000
C46        C    0.0807904583   -0.0807904583   -0.0000000000
O24        O    0.0896841680    0.0501300296    0.0000000000
O32        O    0.0501300296    0.0896841680    0.0000000000
C47        C    0.0807904583    0.0807904583    0.0000000000
O25        O   -0.0896841680    0.0501300296    0.0000000000
O31        O   -0.0501300296    0.0896841680    0.0000000000
C48        C   -0.0807904583    0.0807904583    0.0000000000
O26        O   -0.0501300296    0.0000000000   -0.0896841680
O28        O   -0.0896841680    0.0000000000   -0.0501300296
C49        C   -0.0807904583    0.0000000000   -0.0807904583
O27        O    0.0501300296    0.0000000000   -0.0896841680
O29        O    0.0896841680    0.0000000000   -0.0501300296
C50        C    0.0807904583    0.0000000000   -0.0807904583
D157       D   -0.0204731904    0.5021741455    0.4247623631
D158       D   -0.0102873096    0.5313565420    0.4430935561
D159       D    0.0166869546    0.5127085501    0.4577918059
D160       D    0.0065010738    0.4835261536    0.4394606128
D161       D   -0.0046560486    0.5215621449    0.4203326857
D162       D    0.0223182156    0.5029141530    0.4350309354
D163       D    0.0008698128    0.4933205506    0.4622214832
D164       D   -0.0261044514    0.5119685425    0.4475232335
Hf111     Hf    0.0000000000    0.5000000000    0.4369308934
D165       D   -0.0021741455    0.5752376369    0.4795268096
D166       D   -0.0313565420    0.5569064439    0.4897126904
D167       D   -0.0127085501    0.5422081941    0.5166869546
D168       D    0.0164738464    0.5605393872    0.5065010738
D169       D   -0.0215621449    0.5796673143    0.4953439514
D170       D   -0.0029141530    0.5649690646    0.5223182156
D171       D    0.0066794494    0.5377785168    0.5008698128
D172       D   -0.0119685425    0.5524767665    0.4738955486
Hf138     Hf    0.0000000000    0.5630691066    0.5000000000
D173       D   -0.0033871698    0.4232290600    0.4777073825
D174       D    0.0013855996    0.4190667490    0.5130810014
D175       D    0.0128130320    0.4530487352    0.5155377219
D176       D    0.0080402627    0.4572110462    0.4801641030
D177       D   -0.0178681466    0.4266090594    0.4983126112
D178       D   -0.0064407141    0.4605910456    0.5007693317
D179       D    0.0272940088    0.4496687357    0.4949324932
D180       D    0.0158665764    0.4156867495    0.4924757727
Hf139     Hf    0.0000000000    0.4369308934    0.5000000000
D181       D   -0.0752376369    0.5021741455    0.4795268096
D182       D   -0.0774554379    0.5058653513    0.5152038811
D183       D   -0.0422081941    0.5127085501    0.5166869546
D184       D   -0.0399903931    0.5090173443    0.4810098831
D185       D   -0.0796673143    0.5215621449    0.4953439514
D186       D   -0.0444200705    0.5284053438    0.4968270249
D187       D   -0.0377785168    0.4933205506    0.5008698128
D188       D   -0.0730257607    0.4864773518    0.4993867393
Hf140     Hf   -0.0630691066    0.5000000000    0.5000000000
D189       D    0.0767709400    0.4777073825    0.4966128302
D190       D    0.0482221796    0.4950276282    0.4833322263
D191       D    0.0469512648    0.5155377219    0.5128130320
D192       D    0.0755000253    0.4982174762    0.5260936360
D193       D    0.0733909406    0.4983126112    0.4821318534
D194       D    0.0721200258    0.5188227050    0.5116126591
D195       D    0.0503312643    0.4949324932    0.5272940088
D196       D    0.0516021791    0.4744223994    0.4978132031
Hf141     Hf    0.0630691066    0.5000000000    0.5000000000
D202       D    0.0007693317    0.5064407141    0.5394089544
D203       D   -0.0050675068    0.4727059912    0.5503312643
D204       D   -0.0075242273    0.4841334236    0.5843132505
D197       D   -0.0222926175    0.5033871698    0.5767709400
D198       D    0.0130810014    0.4986144004    0.5809332510
D199       D    0.0155377219    0.4871869680    0.5469512648
D200       D   -0.0198358970    0.4919597373    0.5427889538
D201       D   -0.0016873888    0.5178681466    0.5733909406
Hf142     Hf    0.0000000000    0.5000000000    0.5630691066
H118       H   -0.0473399459    0.5473399459    0.4526600541
O119       O   -0.0295067875    0.5295067875    0.4704932125
H120       H    0.0473399459    0.4526600541    0.4526600541
O121       O    0.0295067875    0.4704932125    0.4704932125
H153       H   -0.0473399459    0.4526600541    0.5473399459
O154       O   -0.0295067875    0.4704932125    0.5295067875
H155       H    0.0473399459    0.5473399459    0.5473399459
O156       O    0.0295067875    0.5295067875    0.5295067875
O112       O    0.0295067875    0.5295067875    0.4704932125
O113       O   -0.0295067875    0.4704932125    0.4704932125
O143       O    0.0295067875    0.4704932125    0.5295067875
O144       O   -0.0295067875    0.5295067875    0.5295067875
O103       O    0.0000000000    0.4103158320    0.4498699704
O110       O    0.0000000000    0.4498699704    0.4103158320
C114       C    0.0000000000    0.4192095417    0.4192095417
O104       O    0.0000000000    0.5896841680    0.4498699704
O109       O    0.0000000000    0.5501300296    0.4103158320
C115       C    0.0000000000    0.5807904583    0.4192095417
O105       O   -0.0501300296    0.5000000000    0.4103158320
O108       O   -0.0896841680    0.5000000000    0.4498699704
C116       C   -0.0807904583    0.5000000000    0.4192095417
O106       O    0.0501300296    0.5000000000    0.4103158320
O107       O    0.0896841680    0.5000000000    0.4498699704
C117       C    0.0807904583    0.5000000000    0.4192095417
O122       O    0.0000000000    0.5896841680    0.5501300296
O136       O    0.0000000000    0.5501300296    0.5896841680
C145       C    0.0000000000    0.5807904583    0.5807904583
O123       O    0.0000000000    0.4103158320    0.5501300296
O137       O    0.0000000000    0.4498699704    0.5896841680
C146       C    0.0000000000    0.4192095417    0.5807904583
O124       O   -0.0896841680    0.5501300296    0.5000000000
O132       O   -0.0501300296    0.5896841680    0.5000000000
C147       C   -0.0807904583    0.5807904583    0.5000000000
O125       O    0.0896841680    0.5501300296    0.5000000000
O135       O    0.0501300296    0.5896841680    0.5000000000
C148       C    0.0807904583    0.5807904583    0.5000000000
O126       O    0.0896841680    0.4498699704    0.5000000000
O134       O    0.0501300296    0.4103158320    0.5000000000
C149       C    0.0807904583    0.4192095417    0.5000000000
O127       O   -0.0896841680    0.4498699704    0.5000000000
O133       O   -0.0501300296    0.4103158320    0.5000000000
C150       C   -0.0807904583    0.4192095417    0.5000000000
O128       O   -0.0501300296    0.5000000000    0.5896841680
O130       O   -0.0896841680    0.5000000000    0.5501300296
C151       C   -0.0807904583    0.5000000000    0.5807904583
O129       O    0.0501300296    0.5000000000    0.5896841680
O131       O    0.0896841680    0.5000000000    0.5501300296
C152       C    0.0807904583    0.5000000000    0.5807904583
D259       D    0.5752376369    1.0204731904    0.5021741455
D260       D    0.5569064439    1.0102873096    0.5313565420
D261       D    0.5422081941    0.9833130454    0.5127085501
D262       D    0.5605393872    0.9934989262    0.4835261536
D263       D    0.5796673143    1.0046560486    0.5215621449
D264       D    0.5649690646    0.9776817844    0.5029141530
D265       D    0.5377785168    0.9991301872    0.4933205506
D266       D    0.5524767665    1.0261044514    0.5119685425
Hf213     Hf    0.5630691066    1.0000000000    0.5000000000
D267       D    0.5204731904    1.0021741455    0.5752376369
D268       D    0.5102873096    1.0313565420    0.5569064439
D269       D    0.4833130454    1.0127085501    0.5422081941
D270       D    0.4934989262    0.9835261536    0.5605393872
D271       D    0.5046560486    1.0215621449    0.5796673143
D272       D    0.4776817844    1.0029141530    0.5649690646
D273       D    0.4991301872    0.9933205506    0.5377785168
D274       D    0.5261044514    1.0119685425    0.5524767665
Hf240     Hf    0.5000000000    1.0000000000    0.5630691066
D275       D    0.5222926175    1.0033871698    0.4232290600
D276       D    0.4869189986    0.9986144004    0.4190667490
D277       D    0.4844622781    0.9871869680    0.4530487352
D278       D    0.5198358970    0.9919597373    0.4572110462
D279       D    0.5016873888    1.0178681466    0.4266090594
D280       D    0.4992306683    1.0064407141    0.4605910456
D281       D    0.5050675068    0.9727059912    0.4496687357
D282       D    0.5075242273    0.9841334236    0.4156867495
Hf241     Hf    0.5000000000    1.0000000000    0.4369308934
D283       D    0.5204731904    1.0752376369    0.5021741455
D284       D    0.4847961189    1.0774554379    0.5058653513
D285       D    0.4833130454    1.0422081941    0.5127085501
D286       D    0.5189901169    1.0399903931    0.5090173443
D287       D    0.5046560486    1.0796673143    0.5215621449
D288       D    0.5031729751    1.0444200705    0.5284053438
D289       D    0.4991301872    1.0377785168    0.4933205506
D290       D    0.5006132607    1.0730257607    0.4864773518
Hf242     Hf    0.5000000000    1.0630691066    0.5000000000
D291       D    0.5033871698    0.9232290600    0.4777073825
D292       D    0.5166677737    0.9517778204    0.4950276282
D293       D    0.4871869680    0.9530487352    0.5155377219
D294       D    0.4739063640    0.9244999747    0.4982174762
D295       D    0.5178681466    0.9266090594    0.4983126112
D296       D    0.4883873409    0.9278799742    0.5188227050
D297       D    0.4727059912    0.9496687357    0.4949324932
D298       D    0.5021867969    0.9483978209    0.4744223994
Hf243     Hf    0.5000000000    0.9369308934    0.5000000000
D304       D    0.4605910456    0.9992306683    0.5064407141
D305       D    0.4496687357    1.0050675068    0.4727059912
D306       D    0.4156867495    1.0075242273    0.4841334236
D299       D    0.4232290600    1.0222926175    0.5033871698
D300       D    0.4190667490    0.9869189986    0.4986144004
D301       D    0.4530487352    0.9844622781    0.4871869680
D302       D    0.4572110462    1.0198358970    0.4919597373
D303       D    0.4266090594    1.0016873888    0.5178681466
Hf244     Hf    0.4369308934    1.0000000000    0.5000000000
H220       H    0.5473399459    1.0473399459    0.5473399459
O221       O    0.5295067875    1.0295067875    0.5295067875
H222       H    0.5473399459    0.9526600541    0.4526600541
O223       O    0.5295067875    0.9704932125    0.4704932125
H255       H    0.4526600541    1.0473399459    0.4526600541
O256       O    0.4704932125    1.0295067875    0.4704932125
H257       H    0.4526600541    0.9526600541    0.5473399459
O258       O    0.4704932125    0.9704932125    0.5295067875
O214       O    0.5295067875    0.9704932125    0.5295067875
O215       O    0.5295067875    1.0295067875    0.4704932125
O245       O    0.4704932125    0.9704932125    0.4704932125
O246       O    0.4704932125    1.0295067875    0.5295067875
O205       O    0.5501300296    1.0000000000    0.4103158320
O212       O    0.5896841680    1.0000000000    0.4498699704
C216       C    0.5807904583    1.0000000000    0.4192095417
O206       O    0.5501300296    1.0000000000    0.5896841680
O211       O    0.5896841680    1.0000000000    0.5501300296
C217       C    0.5807904583    1.0000000000    0.5807904583
O207       O    0.5896841680    1.0501300296    0.5000000000
O210       O    0.5501300296    1.0896841680    0.5000000000
C218       C    0.5807904583    1.0807904583    0.5000000000
O208       O    0.5896841680    0.9498699704    0.5000000000
O209       O    0.5501300296    0.9103158320    0.5000000000
C219       C    0.5807904583    0.9192095417    0.5000000000
O224       O    0.4498699704    1.0000000000    0.5896841680
O238       O    0.4103158320    1.0000000000    0.5501300296
C247       C    0.4192095417    1.0000000000    0.5807904583
O225       O    0.4498699704    1.0000000000    0.4103158320
O239       O    0.4103158320    1.0000000000    0.4498699704
C248       C    0.4192095417    1.0000000000    0.4192095417
O226       O    0.5000000000    1.0896841680    0.5501300296
O234       O    0.5000000000    1.0501300296    0.5896841680
C249       C    0.5000000000    1.0807904583    0.5807904583
O227       O    0.5000000000    0.9103158320    0.5501300296
O237       O    0.5000000000    0.9498699704    0.5896841680
C250       C    0.5000000000    0.9192095417    0.5807904583
O228       O    0.5000000000    0.9103158320    0.4498699704
O236       O    0.5000000000    0.9498699704    0.4103158320
C251       C    0.5000000000    0.9192095417    0.4192095417
O229       O    0.5000000000    1.0896841680    0.4498699704
O235       O    0.5000000000    1.0501300296    0.4103158320
C252       C    0.5000000000    1.0807904583    0.4192095417
O230       O    0.4103158320    1.0501300296    0.5000000000
O232       O    0.4498699704    1.0896841680    0.5000000000
C253       C    0.4192095417    1.0807904583    0.5000000000
O231       O    0.4103158320    0.9498699704    0.5000000000
O233       O    0.4498699704    0.9103158320    0.5000000000
C254       C    0.4192095417    0.9192095417    0.5000000000
D361       D    0.4247623631    0.5021741455    1.0204731904
D362       D    0.4430935561    0.5313565420    1.0102873096
D363       D    0.4577918059    0.5127085501    0.9833130454
D364       D    0.4394606128    0.4835261536    0.9934989262
D365       D    0.4203326857    0.5215621449    1.0046560486
D366       D    0.4350309354    0.5029141530    0.9776817844
D367       D    0.4622214832    0.4933205506    0.9991301872
D368       D    0.4475232335    0.5119685425    1.0261044514
Hf315     Hf    0.4369308934    0.5000000000    1.0000000000
D369       D    0.4795268096    0.5752376369    1.0021741455
D370       D    0.4897126904    0.5569064439    1.0313565420
D371       D    0.5166869546    0.5422081941    1.0127085501
D372       D    0.5065010738    0.5605393872    0.9835261536
D373       D    0.4953439514    0.5796673143    1.0215621449
D374       D    0.5223182156    0.5649690646    1.0029141530
D375       D    0.5008698128    0.5377785168    0.9933205506
D376       D    0.4738955486    0.5524767665    1.0119685425
Hf342     Hf    0.5000000000    0.5630691066    1.0000000000
D377       D    0.4777073825    0.4232290600    1.0033871698
D378       D    0.5130810014    0.4190667490    0.9986144004
D379       D    0.5155377219    0.4530487352    0.9871869680
D380       D    0.4801641030    0.4572110462    0.9919597373
D381       D    0.4983126112    0.4266090594    1.0178681466
D382       D    0.5007693317    0.4605910456    1.0064407141
D383       D    0.4949324932    0.4496687357    0.9727059912
D384       D    0.4924757727    0.4156867495    0.9841334236
Hf343     Hf    0.5000000000    0.4369308934    1.0000000000
D385       D    0.4795268096    0.5021741455    1.0752376369
D386       D    0.5152038811    0.5058653513    1.0774554379
D387       D    0.5166869546    0.5127085501    1.0422081941
D388       D    0.4810098831    0.5090173443    1.0399903931
D389       D    0.4953439514    0.5215621449    1.0796673143
D390       D    0.4968270249    0.5284053438    1.0444200705
D391       D    0.5008698128    0.4933205506    1.0377785168
D392       D    0.4993867393    0.4864773518    1.0730257607
Hf344     Hf    0.5000000000    0.5000000000    1.0630691066
D393       D    0.4966128302    0.4777073825    0.9232290600
D394       D    0.4833322263    0.4950276282    0.9517778204
D395       D    0.5128130320    0.5155377219    0.9530487352
D396       D    0.5260936360    0.4982174762    0.9244999747
D397       D    0.4821318534    0.4983126112    0.9266090594
D398       D    0.5116126591    0.5188227050    0.9278799742
D399       D    0.5272940088    0.4949324932    0.9496687357
D400       D    0.4978132031    0.4744223994    0.9483978209
Hf345     Hf    0.5000000000    0.5000000000    0.9369308934
D406       D    0.5394089544    0.5064407141    0.9992306683
D407       D    0.5503312643    0.4727059912    1.0050675068
D408       D    0.5843132505    0.4841334236    1.0075242273
D401       D    0.5767709400    0.5033871698    1.0222926175
D402       D    0.5809332510    0.4986144004    0.9869189986
D403       D    0.5469512648    0.4871869680    0.9844622781
D404       D    0.5427889538    0.4919597373    1.0198358970
D405       D    0.5733909406    0.5178681466    1.0016873888
Hf346     Hf    0.5630691066    0.5000000000    1.0000000000
H322       H    0.4526600541    0.5473399459    1.0473399459
O323       O    0.4704932125    0.5295067875    1.0295067875
H324       H    0.4526600541    0.4526600541    0.9526600541
O325       O    0.4704932125    0.4704932125    0.9704932125
H357       H    0.5473399459    0.4526600541    1.0473399459
O358       O    0.5295067875    0.4704932125    1.0295067875
H359       H    0.5473399459    0.5473399459    0.9526600541
O360       O    0.5295067875    0.5295067875    0.9704932125
O316       O    0.4704932125    0.5295067875    0.9704932125
O317       O    0.4704932125    0.4704932125    1.0295067875
O347       O    0.5295067875    0.4704932125    0.9704932125
O348       O    0.5295067875    0.5295067875    1.0295067875
O307       O    0.4498699704    0.4103158320    1.0000000000
O314       O    0.4103158320    0.4498699704    1.0000000000
C318       C    0.4192095417    0.4192095417    1.0000000000
O308       O    0.4498699704    0.5896841680    1.0000000000
O313       O    0.4103158320    0.5501300296    1.0000000000
C319       C    0.4192095417    0.5807904583    1.0000000000
O309       O    0.4103158320    0.5000000000    1.0501300296
O312       O    0.4498699704    0.5000000000    1.0896841680
C320       C    0.4192095417    0.5000000000    1.0807904583
O310       O    0.4103158320    0.5000000000    0.9498699704
O311       O    0.4498699704    0.5000000000    0.9103158320
C321       C    0.4192095417    0.5000000000    0.9192095417
O326       O    0.5501300296    0.5896841680    1.0000000000
O340       O    0.5896841680    0.5501300296    1.0000000000
C349       C    0.5807904583    0.5807904583    1.0000000000
O327       O    0.5501300296    0.4103158320    1.0000000000
O341       O    0.5896841680    0.4498699704    1.0000000000
C350       C    0.5807904583    0.4192095417    1.0000000000
O328       O    0.5000000000    0.5501300296    1.0896841680
O336       O    0.5000000000    0.5896841680    1.0501300296
C351       C    0.5000000000    0.5807904583    1.0807904583
O329       O    0.5000000000    0.5501300296    0.9103158320
O339       O    0.5000000000    0.5896841680    0.9498699704
C352       C    0.5000000000    0.5807904583    0.9192095417
O330       O    0.5000000000    0.4498699704    0.9103158320
O338       O    0.5000000000    0.4103158320    0.9498699704
C353       C    0.5000000000    0.4192095417    0.9192095417
O331       O    0.5000000000    0.4498699704    1.0896841680
O337       O    0.5000000000    0.4103158320    1.0501300296
C354       C    0.5000000000    0.4192095417    1.0807904583
O332       O    0.5896841680    0.5000000000    1.0501300296
O334       O    0.5501300296    0.5000000000    1.0896841680
C355       C    0.5807904583    0.5000000000    1.0807904583
O333       O    0.5896841680    0.5000000000    0.9498699704
O335       O    0.5501300296    0.5000000000    0.9103158320
C356       C    0.5807904583    0.5000000000    0.9192095417
C1467      C    0.4650373266    1.2758988277    0.3012758887
C1468      C    0.4658791900    1.3015238208    0.2763546997
C1469      C    0.4808719725    1.2960018753    0.2442095254
C1470      C    0.4948416038    1.2636370512    0.2381964782
C1471      C    0.5096287440    1.2579952052    0.2061094851
C1472      C    0.5237045503    1.2255203433    0.2002005558
C1473      C    0.5231371769    1.2000261026    0.2252404854
C1474      C    0.5084112923    1.2055919655    0.2574761847
C1475      C    0.4941695703    1.2378616483    0.2633746726
C1476      C    0.4792758287    1.2434779280    0.2954317244
C1477      C    0.4783839794    1.2159011858    0.3220249211
O1478      O    0.4627062808    1.2214260644    0.3486700377
N1479      N    0.4941009482    1.1858029873    0.3153169724
C1480      C    0.5082819103    1.1784497903    0.2845635349
O1481      O    0.5213131432    1.1507540540    0.2777752586
C1482      C    0.4957002153    1.1604806215    0.3415105238
C1483      C    0.4659432495    1.1443982244    0.3537919621
C1484      C    0.4681495744    1.1183732892    0.3782084383
C1485      C    0.5000000000    1.3915388111    0.1084611889
C1486      C    0.5296252856    1.1247832918    0.3796077800
C1487      C    0.5275490309    1.1504929127    0.3548680584
C1488      C    0.5102092804    1.2854001579    0.1793049053
O1489      O    0.5232346022    1.2786571871    0.1515841766
N1490      N    0.4961632893    1.3161858489    0.1867656903
C1491      C    0.4824572351    1.3235828723    0.2176455011
O1492      O    0.4720155916    1.3521995447    0.2252965754
C1493      C    0.4967618501    1.3420484550    0.1610413969
C1494      C    0.4781323115    1.3376447385    0.1306341315
C1495      C    0.4797552615    1.3621830932    0.1046362265
C1496      C    0.5186062897    1.3959995522    0.1388594051
C1497      C    0.5166613428    1.3717683475    0.1650513639
H1498      H    0.5507516133    1.1621355756    0.3458620743
H1499      H    0.4628635916    1.3151467950    0.1267003298
C1500      C    0.5000000000    1.1084611889    0.3915388111
H1501      H    0.5542356301    1.1173397658    0.3893486973
H1502      H    0.4655530191    1.3582332360    0.0814125599
H1503      H    0.5348202934    1.4177769361    0.1426739335
O1504      O    0.5339099901    1.3779064102    0.1944516600
H1505      H    0.5189239777    1.3776389381    0.2133581012
H1506      H    0.5353150224    1.2199919049    0.1759194035
H1507      H    0.5344086908    1.1755871463    0.2195211685
H1508      H    0.4532673471    1.2813689179    0.3255278006
H1509      H    0.4548212733    1.3259939112    0.2821495709
O1510      O    0.4345389149    1.1540549544    0.3428437991
H1511      H    0.4313221823    1.1777715280    0.3460788132
H1512      H    0.4448934836    1.1062038027    0.3861726710
C1421      C    0.5165105420    0.7816271493    0.1929957896
C1422      C    0.5155565133    0.8070522822    0.2181168388
C1423      C    0.5094696233    0.7991844342    0.2526079157
C1424      C    0.5045107950    0.7647131106    0.2607274624
C1425      C    0.4986330112    0.7567715184    0.2951142018
C1426      C    0.4935744262    0.7221672393    0.3031525482
C1427      C    0.4942130457    0.6968072105    0.2779784067
C1428      C    0.5000167400    0.7046577573    0.2434580235
C1429      C    0.5052800516    0.7390981052    0.2353888705
C1430      C    0.5112713394    0.7470386260    0.2010075776
C1431      C    0.5123336959    0.7196793624    0.1741969023
O1432      O    0.5202663395    0.7278317751    0.1449242515
N1433      N    0.5053706293    0.6870571611    0.1834288538
C1434      C    0.5001517751    0.6775450085    0.2163412470
O1435      O    0.4952402543    0.6478524693    0.2251263261
C1436      C    0.5036594572    0.6613663850    0.1576037127
C1437      C    0.5328034567    0.6518389248    0.1387673376
C1438      C    0.5310531395    0.6253736651    0.1147911859
C1439      C    0.5000000000    0.8915388111    0.3915388111
C1440      C    0.4708531453    0.6182426916    0.1269328202
C1441      C    0.4726183722    0.6443798211    0.1512450332
C1442      C    0.4979501412    0.7840358698    0.3220593827
O1443      O    0.4930398338    0.7752968891    0.3517761215
N1444      N    0.5030101764    0.8169478213    0.3124723373
C1445      C    0.5077401144    0.8263965389    0.2795408324
O1446      O    0.5097998139    0.8564044535    0.2704985157
C1447      C    0.5024105105    0.8426770799    0.3383299782
C1448      C    0.5277002278    0.8431610243    0.3638495826
C1449      C    0.5264727417    0.8673821613    0.3901647053
C1450      C    0.4747219877    0.8911157812    0.3660243659
C1451      C    0.4761470457    0.8672596156    0.3394573680
H1452      H    0.4499647790    0.6509192682    0.1653542331
H1453      H    0.5479716675    0.8246182537    0.3638282114
C1454      C    0.5000000000    0.6084611889    0.1084611889
H1455      H    0.4469335357    0.6053983919    0.1225926766
H1456      H    0.5458903703    0.8671737730    0.4096469030
H1457      H    0.4537333687    0.9087529810    0.3663500217
O1458      O    0.4520134818    0.8687923586    0.3146623916
H1459      H    0.4622267478    0.8713292493    0.2929515876
H1460      H    0.4889997227    0.7148375944    0.3292349070
H1461      H    0.4900366464    0.6706490957    0.2854168821
H1462      H    0.5212560658    0.7889352074    0.1669059099
H1463      H    0.5195064689    0.8331925602    0.2106517802
O1464      O    0.5629701313    0.6683477339    0.1428634214
H1465      H    0.5601776106    0.6921115169    0.1395811979
H1466      H    0.5540983411    0.6183569302    0.1016742015
C1375      C    0.4484832510    0.7095051615    0.7348822226
C1376      C    0.4479181625    0.7353426456    0.7101735246
C1377      C    0.4732322957    0.7607659104    0.7089735605
C1378      C    0.4991312941    0.7590098070    0.7335692339
C1379      C    0.5245058021    0.7842016435    0.7323159234
C1380      C    0.5504002571    0.7824135290    0.7570937415
C1381      C    0.5507669916    0.7567652499    0.7819796326
C1382      C    0.5253362061    0.7315012520    0.7833854713
C1383      C    0.4996073221    0.7330839230    0.7585969473
C1384      C    0.4742806818    0.7078214279    0.7597752243
C1385      C    0.4750470128    0.6801483204    0.7862720557
O1386      O    0.4536630371    0.6572194886    0.7844634620
N1387      N    0.4996949571    0.6810398589    0.8105538440
C1388      C    0.5253854625    0.7042975613    0.8104113059
O1389      O    0.5486174056    0.7044424966    0.8314637012
C1390      C    0.4989497410    0.6563731817    0.8374030840
C1391      C    0.5040709155    0.6213769153    0.8307706530
C1392      C    0.5050233265    0.5977770663    0.8576122154
C1393      C    0.5000000000    0.8915388111    0.6084611889
C1394      C    0.4944737694    0.6432850876    0.8981095758
C1395      C    0.4939606880    0.6670067729    0.8713819186
C1396      C    0.5240350543    0.8116908853    0.7055956327
O1397      O    0.5472531676    0.8327734302    0.7057004197
N1398      N    0.4982349207    0.8118851336    0.6824649750
C1399      C    0.4723854899    0.7889138498    0.6829764786
O1400      O    0.4476839496    0.7905497129    0.6636467436
C1401      C    0.4980883169    0.8380947249    0.6570876668
C1402      C    0.5241495139    0.8393965859    0.6323859790
C1403      C    0.5250448714    0.8658683447    0.6083214780
C1404      C    0.4739069021    0.8902516340    0.6331114869
C1405      C    0.4726847666    0.8635889352    0.6568719515
H1406      H    0.4901980133    0.6935742203    0.8773007190
H1407      H    0.5440298218    0.8204391406    0.6319926754
C1408      C    0.5000000000    0.6084611889    0.8915388111
H1409      H    0.4908346433    0.6519419937    0.9239509253
H1410      H    0.5453603856    0.8666118875    0.5897912115
H1411      H    0.4545408494    0.9096090655    0.6345060628
O1412      O    0.4462243207    0.8626547365    0.6791999863
H1413      H    0.4343191618    0.8417418507    0.6774610138
H1414      H    0.5704546599    0.8011954650    0.7571229636
H1415      H    0.5710949411    0.7565864490    0.8005204712
H1416      H    0.4285036665    0.6905998583    0.7347587410
H1417      H    0.4274974945    0.7356453842    0.6918010438
O1418      O    0.5075587975    0.6096010827    0.7983899274
H1419      H    0.4888294995    0.6164688223    0.7847761075
H1420      H    0.5098958005    0.5714937515    0.8514626198
C1329      C    0.5642341506    1.2565921849    0.7687848761
C1330      C    0.5640693354    1.2306374635    0.7441934155
C1331      C    0.5340578898    1.2214186856    0.7267889646
C1332      C    0.5043247474    1.2394690658    0.7350903612
C1333      C    0.4744129977    1.2304701992    0.7176440807
C1334      C    0.4446080012    1.2485723053    0.7261079071
C1335      C    0.4447298748    1.2742923026    0.7509220802
C1336      C    0.4746412352    1.2833469612    0.7685372581
C1337      C    0.5044372301    1.2655014297    0.7600115946
C1338      C    0.5343879782    1.2745735526    0.7773802438
C1339      C    0.5344342384    1.3024575640    0.8036661714
O1340      O    0.5619237054    1.3110716958    0.8161722776
N1341      N    0.5044188465    1.3175765459    0.8119374392
C1342      C    0.4746953337    1.3105492337    0.7955645109
O1343      O    0.4476692039    1.3251245471    0.8018966575
C1344      C    0.5038545124    1.3421902440    0.8388396583
C1345      C    0.5210476439    1.3736507161    0.8357430216
C1346      C    0.5187533309    1.3982015085    0.8616336406
C1347      C    0.5000000000    1.1084611889    0.6084611889
C1348      C    0.4832103034    1.3600139052    0.8948105830
C1349      C    0.4850760927    1.3355954648    0.8687796809
C1350      C    0.4743613911    1.2028581938    0.6910465536
O1351      O    0.4473500398    1.1964875184    0.6764394710
N1352      N    0.5040730452    1.1864049193    0.6841749221
C1353      C    0.5335812431    1.1931623290    0.7009002997
O1354      O    0.5598948058    1.1765844883    0.6965125424
C1355      C    0.5037605683    1.1602439111    0.6587490307
C1356      C    0.4970324325    1.1685458234    0.6244435697
C1357      C    0.4951956903    1.1428742780    0.5995788553
C1358      C    0.5067690461    1.1001232669    0.6427365860
C1359      C    0.5090843434    1.1257498757    0.6675331407
H1360      H    0.4714935816    1.3119041809    0.8718223178
H1361      H    0.4926503065    1.1946095711    0.6169439638
C1362      C    0.5000000000    1.3915388111    0.8915388111
H1363      H    0.4685344264    1.3545895886    0.9174193429
H1364      H    0.4897238142    1.1496836870    0.5734956370
H1365      H    0.5100869095    1.0741218701    0.6507751272
O1366      O    0.5170977861    1.1165869061    0.6999583437
H1367      H    0.5368419339    1.1282299246    0.7074892385
H1368      H    0.4210218179    1.2425724011    0.7133550975
H1369      H    0.4211748250    1.2873241364    0.7566098858
H1370      H    0.5878762426    1.2627209949    0.7814378878
H1371      H    0.5875437993    1.2174781385    0.7386775212
O1372      O    0.5406596180    1.3807039115    0.8080849333
H1373      H    0.5572762718    1.3634835822    0.8048237030
H1374      H    0.5315244267    1.4221713706    0.8577974978
C1283      C   -0.2904948385    0.2651177774    0.5515167490
C1284      C   -0.2646573544    0.2898264754    0.5520818375
C1285      C   -0.2392340896    0.2910264395    0.5267677043
C1286      C   -0.2409901930    0.2664307661    0.5008687059
C1287      C   -0.2157983565    0.2676840766    0.4754941979
C1288      C   -0.2175864710    0.2429062585    0.4495997429
C1289      C   -0.2432347501    0.2180203674    0.4492330084
C1290      C   -0.2684987480    0.2166145287    0.4746637939
C1291      C   -0.2669160770    0.2414030527    0.5003926779
C1292      C   -0.2921785721    0.2402247757    0.5257193182
C1293      C   -0.3198516796    0.2137279443    0.5249529872
O1294      O   -0.3427805114    0.2155365380    0.5463369629
N1295      N   -0.3189601411    0.1894461560    0.5003050429
C1296      C   -0.2957024387    0.1895886941    0.4746145375
O1297      O   -0.2955575034    0.1685362988    0.4513825944
C1298      C   -0.3436268183    0.1625969160    0.5010502590
C1299      C   -0.3786230847    0.1692293470    0.4959290845
C1300      C   -0.4022229337    0.1423877846    0.4949766735
C1301      C   -0.1084611889    0.3915388111    0.5000000000
C1302      C   -0.3567149124    0.1018904242    0.5055262306
C1303      C   -0.3329932271    0.1286180814    0.5060393120
C1304      C   -0.1883091147    0.2944043673    0.4759649457
O1305      O   -0.1672265698    0.2942995803    0.4527468324
N1306      N   -0.1881148664    0.3175350250    0.5017650793
C1307      C   -0.2110861502    0.3170235214    0.5276145101
O1308      O   -0.2094502871    0.3363532564    0.5523160504
C1309      C   -0.1619052751    0.3429123332    0.5019116831
C1310      C   -0.1606034141    0.3676140210    0.4758504861
C1311      C   -0.1341316553    0.3916785220    0.4749551286
C1312      C   -0.1097483660    0.3668885131    0.5260930979
C1313      C   -0.1364110648    0.3431280485    0.5273152334
H1314      H   -0.3064257797    0.1226992810    0.5098019867
H1315      H   -0.1795608594    0.3680073246    0.4559701782
C1316      C   -0.3915388111    0.1084611889    0.5000000000
H1317      H   -0.3480580063    0.0760490747    0.5091653567
H1318      H   -0.1333881125    0.4102087885    0.4546396144
H1319      H   -0.0903909345    0.3654939372    0.5454591506
O1320      O   -0.1373452635    0.3208000137    0.5537756793
H1321      H   -0.1582581493    0.3225389862    0.5656808382
H1322      H   -0.1988045350    0.2428770364    0.4295453401
H1323      H   -0.2434135510    0.1994795288    0.4289050589
H1324      H   -0.3094001417    0.2652412590    0.5714963335
H1325      H   -0.2643546158    0.3081989562    0.5725025055
O1326      O   -0.3903989173    0.2016100726    0.4924412025
H1327      H   -0.3835311777    0.2152238925    0.5111705005
H1328      H   -0.4285062485    0.1485373802    0.4901041995
C1237      C   -0.2977744271    0.7276026340    0.5416931251
C1238      C   -0.2729269026    0.7019039764    0.5409222877
C1239      C   -0.2423022368    0.7059054134    0.5226273160
C1240      C   -0.2377195696    0.7368398573    0.5052823309
C1241      C   -0.2071346330    0.7409796469    0.4871856774
C1242      C   -0.2026657678    0.7720144447    0.4697348611
C1243      C   -0.2276559681    0.7975584147    0.4702561877
C1244      C   -0.2583948814    0.7934893378    0.4882987107
C1245      C   -0.2628391070    0.7626739173    0.5058944475
C1246      C   -0.2933846348    0.7585691616    0.5240917665
C1247      C   -0.3199007820    0.7862229533    0.5248867247
O1248      O   -0.3449859230    0.7822580504    0.5433608147
N1249      N   -0.3147756474    0.8147383377    0.5059519132
C1250      C   -0.2854706888    0.8206430558    0.4884220297
O1251      O   -0.2800112400    0.8470099646    0.4723618906
C1252      C   -0.3411110731    0.8399188292    0.5044451947
C1253      C   -0.3507011429    0.8586925947    0.5336090511
C1254      C   -0.3753250254    0.8845101237    0.5312747324
C1255      C   -0.1084611889    0.6084611889    0.5000000000
C1256      C   -0.3822847165    0.8725397716    0.4710204153
C1257      C   -0.3573520755    0.8470230702    0.4731676514
C1258      C   -0.1803803732    0.7135243743    0.4866645854
O1259      O   -0.1539878496    0.7189391398    0.4706121563
N1260      N   -0.1864043772    0.6841754642    0.5040733419
C1261      C   -0.2158782068    0.6781844219    0.5211477487
O1262      O   -0.2224286314    0.6506683994    0.5348020974
C1263      C   -0.1607339635    0.6582589783    0.5034923389
C1264      C   -0.1287765205    0.6642128726    0.5188000882
C1265      C   -0.1029323299    0.6395208035    0.5170578430
C1266      C   -0.1404072684    0.6024525845    0.4847196710
C1267      C   -0.1664141360    0.6268688804    0.4868268344
H1268      H   -0.3504460079    0.8332804909    0.4503977827
H1269      H   -0.1235634737    0.6879900611    0.5315372587
C1270      C   -0.3915388111    0.8915388111    0.5000000000
H1271      H   -0.3942550325    0.8777538990    0.4468236177
H1272      H   -0.0785295244    0.6446497996    0.5286699158
H1273      H   -0.1455905297    0.5793064676    0.4709686685
O1274      O   -0.1972359595    0.6193092903    0.4729546732
H1275      H   -0.2147015809    0.6210175822    0.4895118299
H1276      H   -0.1795647632    0.7763627354    0.4555089340
H1277      H   -0.2230874109    0.8208466114    0.4563346800
H1278      H   -0.3208320439    0.7233268388    0.5560692655
H1279      H   -0.2775900029    0.6785656567    0.5546416795
O1280      O   -0.3369013123    0.8518875324    0.5646348910
H1281      H   -0.3397316825    0.8285756027    0.5702768310
H1282      H   -0.3811909920    0.8987778764    0.5539549625
C1191      C    0.2904948385    0.2651177774    0.4484832510
C1192      C    0.2646573544    0.2898264754    0.4479181625
C1193      C    0.2392340896    0.2910264395    0.4732322957
C1194      C    0.2409901930    0.2664307661    0.4991312941
C1195      C    0.2157983565    0.2676840766    0.5245058021
C1196      C    0.2175864710    0.2429062585    0.5504002571
C1197      C    0.2432347501    0.2180203674    0.5507669916
C1198      C    0.2684987480    0.2166145287    0.5253362061
C1199      C    0.2669160770    0.2414030527    0.4996073221
C1200      C    0.2921785721    0.2402247757    0.4742806818
C1201      C    0.3198516796    0.2137279443    0.4750470128
O1202      O    0.3427805114    0.2155365380    0.4536630371
N1203      N    0.3189601411    0.1894461560    0.4996949571
C1204      C    0.2957024387    0.1895886941    0.5253854625
O1205      O    0.2955575034    0.1685362988    0.5486174056
C1206      C    0.3436268183    0.1625969160    0.4989497410
C1207      C    0.3786230847    0.1692293470    0.5040709155
C1208      C    0.4022229337    0.1423877846    0.5050233265
C1209      C    0.1084611889    0.3915388111    0.5000000000
C1210      C    0.3567149124    0.1018904242    0.4944737694
C1211      C    0.3329932271    0.1286180814    0.4939606880
C1212      C    0.1883091147    0.2944043673    0.5240350543
O1213      O    0.1672265698    0.2942995803    0.5472531676
N1214      N    0.1881148664    0.3175350250    0.4982349207
C1215      C    0.2110861502    0.3170235214    0.4723854899
O1216      O    0.2094502871    0.3363532564    0.4476839496
C1217      C    0.1619052751    0.3429123332    0.4980883169
C1218      C    0.1606034141    0.3676140210    0.5241495139
C1219      C    0.1341316553    0.3916785220    0.5250448714
C1220      C    0.1097483660    0.3668885131    0.4739069021
C1221      C    0.1364110648    0.3431280485    0.4726847666
H1222      H    0.3064257797    0.1226992810    0.4901980133
H1223      H    0.1795608594    0.3680073246    0.5440298218
C1224      C    0.3915388111    0.1084611889    0.5000000000
H1225      H    0.3480580063    0.0760490747    0.4908346433
H1226      H    0.1333881125    0.4102087885    0.5453603856
H1227      H    0.0903909345    0.3654939372    0.4545408494
O1228      O    0.1373452635    0.3208000137    0.4462243207
H1229      H    0.1582581493    0.3225389862    0.4343191618
H1230      H    0.1988045350    0.2428770364    0.5704546599
H1231      H    0.2434135510    0.1994795288    0.5710949411
H1232      H    0.3094001417    0.2652412590    0.4285036665
H1233      H    0.2643546158    0.3081989562    0.4274974945
O1234      O    0.3903989173    0.2016100726    0.5075587975
H1235      H    0.3835311777    0.2152238925    0.4888294995
H1236      H    0.4285062485    0.1485373802    0.5098958005
C1145      C    0.2910605604    0.7343165007    0.5508960981
C1146      C    0.2652293878    0.7096014912    0.5514735876
C1147      C    0.2395279510    0.7086796991    0.5264301434
C1148      C    0.2409993369    0.7335600900    0.5007866191
C1149      C    0.2155286441    0.7325856358    0.4756796616
C1150      C    0.2170321004    0.7576481121    0.4500423387
C1151      C    0.2426762817    0.7825381011    0.4496672267
C1152      C    0.2682197624    0.7836644568    0.4748313427
C1153      C    0.2669199073    0.7585931170    0.5003007269
C1154      C    0.2924607211    0.7594930753    0.5253582131
C1155      C    0.3201252910    0.7859984443    0.5245789811
O1156      O    0.3432888461    0.7839551273    0.5456870678
N1157      N    0.3189629979    0.8105509871    0.5002121397
C1158      C    0.2954228981    0.8106908464    0.4747801274
O1159      O    0.2950226085    0.8319985961    0.4517851909
C1160      C    0.3436380409    0.8373918614    0.5009813760
C1161      C    0.3785751924    0.8308185453    0.4954009462
C1162      C    0.4021647177    0.8576704314    0.4944844633
C1163      C    0.1084611889    0.6084611889    0.5000000000
C1164      C    0.3567784878    0.8980460004    0.5059828510
C1165      C    0.3330622872    0.8713128585    0.5064626623
C1166      C    0.1880446497    0.7058600978    0.4761588467
O1167      O    0.1667069026    0.7062200868    0.4531776277
N1168      N    0.1881340207    0.6824458206    0.5017024484
C1169      C    0.2113894977    0.6826731311    0.5273006068
O1170      O    0.2100254376    0.6630715931    0.5518036646
C1171      C    0.1619260998    0.6570668420    0.5018582288
C1172      C    0.1603349078    0.6326544853    0.4755417100
C1173      C    0.1338534047    0.6085997287    0.4746730552
C1174      C    0.1100380473    0.6328218057    0.5263480103
C1175      C    0.1367140702    0.6565689462    0.5275379350
H1176      H    0.3065383893    0.8771881095    0.5105837596
H1177      H    0.1790715506    0.6324819842    0.4554500570
C1178      C    0.3915388111    0.8915388111    0.5000000000
H1179      H    0.3481638890    0.9238450425    0.5100026419
H1180      H    0.1328843470    0.5902949770    0.4541635270
H1181      H    0.0908958227    0.6340011747    0.5459409509
O1182      O    0.1379418881    0.6786033618    0.5542314933
H1183      H    0.1589849102    0.6767342529    0.5658849598
H1184      H    0.1980297675    0.7578977311    0.4301981940
H1185      H    0.2426316362    0.8013023860    0.4295446072
H1186      H    0.3101854207    0.7339734620    0.5706630294
H1187      H    0.2651511376    0.6910045220    0.5716921432
O1188      O    0.3903097990    0.7984790457    0.4914256837
H1189      H    0.3836485540    0.7846587312    0.5100781707
H1190      H    0.4283922262    0.8515766422    0.4892542913
C1099      C   -0.2904948385    0.4484832510    0.2651177774
C1100      C   -0.2646573544    0.4479181625    0.2898264754
C1101      C   -0.2392340896    0.4732322957    0.2910264395
C1102      C   -0.2409901930    0.4991312941    0.2664307661
C1103      C   -0.2157983565    0.5245058021    0.2676840766
C1104      C   -0.2175864710    0.5504002571    0.2429062585
C1105      C   -0.2432347501    0.5507669916    0.2180203674
C1106      C   -0.2684987480    0.5253362061    0.2166145287
C1107      C   -0.2669160770    0.4996073221    0.2414030527
C1108      C   -0.2921785721    0.4742806818    0.2402247757
C1109      C   -0.3198516796    0.4750470128    0.2137279443
O1110      O   -0.3427805114    0.4536630371    0.2155365380
N1111      N   -0.3189601411    0.4996949571    0.1894461560
C1112      C   -0.2957024387    0.5253854625    0.1895886941
O1113      O   -0.2955575034    0.5486174056    0.1685362988
C1114      C   -0.3436268183    0.4989497410    0.1625969160
C1115      C   -0.3786230847    0.5040709155    0.1692293470
C1116      C   -0.4022229337    0.5050233265    0.1423877846
C1117      C   -0.1084611889    0.5000000000    0.3915388111
C1118      C   -0.3567149124    0.4944737694    0.1018904242
C1119      C   -0.3329932271    0.4939606880    0.1286180814
C1120      C   -0.1883091147    0.5240350543    0.2944043673
O1121      O   -0.1672265698    0.5472531676    0.2942995803
N1122      N   -0.1881148664    0.4982349207    0.3175350250
C1123      C   -0.2110861502    0.4723854899    0.3170235214
O1124      O   -0.2094502871    0.4476839496    0.3363532564
C1125      C   -0.1619052751    0.4980883169    0.3429123332
C1126      C   -0.1606034141    0.5241495139    0.3676140210
C1127      C   -0.1341316553    0.5250448714    0.3916785220
C1128      C   -0.1097483660    0.4739069021    0.3668885131
C1129      C   -0.1364110648    0.4726847666    0.3431280485
H1130      H   -0.3064257797    0.4901980133    0.1226992810
H1131      H   -0.1795608594    0.5440298218    0.3680073246
C1132      C   -0.3915388111    0.5000000000    0.1084611889
H1133      H   -0.3480580063    0.4908346433    0.0760490747
H1134      H   -0.1333881125    0.5453603856    0.4102087885
H1135      H   -0.0903909345    0.4545408494    0.3654939372
O1136      O   -0.1373452635    0.4462243207    0.3208000137
H1137      H   -0.1582581493    0.4343191618    0.3225389862
H1138      H   -0.1988045350    0.5704546599    0.2428770364
H1139      H   -0.2434135510    0.5710949411    0.1994795288
H1140      H   -0.3094001417    0.4285036665    0.2652412590
H1141      H   -0.2643546158    0.4274974945    0.3081989562
O1142      O   -0.3903989173    0.5075587975    0.2016100726
H1143      H   -0.3835311777    0.4888294995    0.2152238925
H1144      H   -0.4285062485    0.5098958005    0.1485373802
C1053      C    0.2271469851    0.5409139836    0.2017699240
C1054      C    0.2014568824    0.5401338511    0.2266260035
C1055      C    0.2056580251    0.5222230676    0.2574503750
C1056      C    0.2367816413    0.5052719840    0.2622222143
C1057      C    0.2411189428    0.4875605825    0.2930046630
C1058      C    0.2723440811    0.4705035321    0.2976638686
C1059      C    0.2978822666    0.4710309040    0.2726678838
C1060      C    0.2936162798    0.4886872630    0.2417320606
C1061      C    0.2626089054    0.5058919080    0.2370958811
C1062      C    0.2583055227    0.5237047839    0.2063517263
C1063      C    0.2859504760    0.5245121947    0.1798267407
O1064      O    0.2817835522    0.5426635844    0.1545395788
N1065      N    0.3146726841    0.5059507773    0.1851586991
C1066      C    0.3207686327    0.4888114264    0.2146548882
O1067      O    0.3473107652    0.4731043195    0.2202895606
C1068      C    0.3398698666    0.5044315020    0.1588399643
C1069      C    0.3583213657    0.5336931152    0.1489276280
C1070      C    0.3841645720    0.5313722477    0.1243294229
C1071      C    0.1084611889    0.5000000000    0.3915388111
C1072      C    0.3728600396    0.4709164450    0.1180355514
C1073      C    0.3473196874    0.4730569769    0.1429445417
C1074      C    0.2136694611    0.4870318210    0.3197647137
O1075      O    0.2192593663    0.4713322129    0.3463323769
N1076      N    0.1841306666    0.5040482590    0.3135508252
C1077      C    0.1779534338    0.5207293735    0.2838908050
O1078      O    0.1502888624    0.5340062722    0.2771918316
C1079      C    0.1582206048    0.5034646123    0.3392276629
C1080      C    0.1640033319    0.5191887002    0.3710139389
C1081      C    0.1393304115    0.5174593761    0.3968772781
C1082      C    0.1026234518    0.4843028509    0.3597635989
C1083      C    0.1270166002    0.4863922121    0.3337335838
H1084      H    0.3338286994    0.4502144653    0.1501022006
H1085      H    0.1876382523    0.5322441132    0.3760847174
C1086      C    0.3915388111    0.5000000000    0.1084611889
H1087      H    0.3783414938    0.4466480641    0.1063325623
H1088      H    0.1443295175    0.5293958023    0.4211501935
H1089      H    0.0796307465    0.4702410193    0.3547337492
O1090      O    0.1196123699    0.4720983522    0.3030671200
H1091      H    0.1211389779    0.4884796743    0.2854198148
H1092      H    0.2768476284    0.4565821305    0.3209201298
H1093      H    0.3213223370    0.4574183793    0.2773883148
H1094      H    0.2227142692    0.5549868585    0.1785553865
H1095      H    0.1779689274    0.5535426885    0.2218132678
O1096      O    0.3511736305    0.5647923391    0.1623847857
H1097      H    0.3278010550    0.5701452157    0.1594937698
H1098      H    0.3981816269    0.5541423983    0.1182127586
C1007      C    0.2986775066    0.5401241094    0.7266995544
C1008      C    0.2738127623    0.5393348629    0.7010181167
C1009      C    0.2427927587    0.5218130082    0.7054148914
C1010      C    0.2378359372    0.5052603419    0.7367234898
C1011      C    0.2068600638    0.4879388855    0.7412542161
C1012      C    0.2020147052    0.4712801427    0.7726655073
C1013      C    0.2270165461    0.4718134371    0.7981978367
C1014      C    0.2581451813    0.4890789518    0.7937390379
C1015      C    0.2629691582    0.5058879299    0.7625438661
C1016      C    0.2939078626    0.5233116458    0.7580459338
C1017      C    0.3204418318    0.5241313247    0.7856819035
O1018      O    0.3459276221    0.5419552749    0.7813163513
N1019      N    0.3149069979    0.5059481899    0.8146069871
C1020      C    0.2852237294    0.4892039302    0.8208900152
O1021      O    0.2794175838    0.4738540285    0.8476036208
C1022      C    0.3412088888    0.5044167159    0.8398210135
C1023      C    0.3514448467    0.5337690490    0.8579488910
C1024      C    0.3760175011    0.5314622116    0.8838176479
C1025      C    0.1084611889    0.5000000000    0.6084611889
C1026      C    0.3816427586    0.4708194620    0.8731817295
C1027      C    0.3567573652    0.4729527616    0.8476177805
C1028      C    0.1800941325    0.4874025758    0.7138106149
O1029      O    0.1533550778    0.4720599595    0.7195719117
N1030      N    0.1864937335    0.5040221649    0.6840861079
C1031      C    0.2163357586    0.5203055376    0.6777268702
O1032      O    0.2231792379    0.5332013819    0.6499177928
C1033      C    0.1608104371    0.5034360141    0.6581825048
C1034      C    0.1292000738    0.5195730144    0.6637893193
C1035      C    0.1033177123    0.5178570456    0.6391354211
C1036      C    0.1400607832    0.4838894500    0.6027990697
C1037      C    0.1661137688    0.4859604825    0.6271692476
H1038      H    0.3493470976    0.4500431037    0.8343794012
H1039      H    0.1242752006    0.5329437983    0.6872783342
C1040      C    0.3915388111    0.5000000000    0.8915388111
H1041      H    0.3930774017    0.4464853432    0.8789315298
H1042      H    0.0791783811    0.5301152323    0.6440009428
H1043      H    0.1449336565    0.4695199133    0.5799633408
O1044      O    0.1966200816    0.4712479962    0.6199251682
H1045      H    0.2144472834    0.4874493194    0.6212718797
H1046      H    0.1786064189    0.4576669569    0.7773210797
H1047      H    0.2221475251    0.4585135150    0.8217864971
H1048      H    0.3220457486    0.5538899929    0.7221131341
H1049      H    0.2787718304    0.5524295747    0.6773838292
O1050      O    0.3383314652    0.5649341484    0.8504573795
H1051      H    0.3412799854    0.5699963749    0.8270272998
H1052      H    0.3823860707    0.5543168204    0.8975827977
C961       C   -0.2991163731    0.4606759422    0.7262606879
C962       C   -0.2742428600    0.4614741145    0.7005880190
C963       C   -0.2430314503    0.4786025747    0.7051761998
C964       C   -0.2378939813    0.4947525895    0.7366654456
C965       C   -0.2067289211    0.5116796836    0.7413853588
C966       C   -0.2017017427    0.5279358589    0.7729784698
C967       C   -0.2267095074    0.5273967692    0.7985048754
C968       C   -0.2580267065    0.5105265030    0.7938575128
C969       C   -0.2630341773    0.4941174869    0.7624788470
C970       C   -0.2941632025    0.4770873730    0.7577905939
C971       C   -0.3207062941    0.4762556202    0.7854174412
O972       O   -0.3463871674    0.4587636190    0.7808568060
N973       N   -0.3149726904    0.4940558503    0.8145412946
C974       C   -0.2851066396    0.5104007397    0.8210071050
O975       O   -0.2791329051    0.5253895160    0.8478882995
C976       C   -0.3412575964    0.4955991553    0.8397723059
C977       C   -0.3518182969    0.4661632210    0.8575754408
C978       C   -0.3763655463    0.4684554586    0.8834696027
C979       C   -0.1084611889    0.5000000000    0.6084611889
C980       C   -0.3813198792    0.5292704472    0.8735046090
C981       C   -0.3564580114    0.5271449041    0.8479171344
C982       C   -0.1799570239    0.5122234141    0.7139477236
O983       O   -0.1530504595    0.5272051202    0.7198765299
N984       N   -0.1865380202    0.4960049235    0.6840418212
C985       C   -0.2165577217    0.4801234606    0.6775049070
O986       O   -0.2235415494    0.4676120038    0.6495554814
C987       C   -0.1608482350    0.4965934365    0.6581447068
C988       C   -0.1294184115    0.4800472603    0.6635709816
C989       C   -0.1035171683    0.4817494486    0.6389359651
C990       C   -0.1398805330    0.5165202212    0.6029793200
C991       C   -0.1659562949    0.5144680317    0.6273267215
H992       H   -0.3487943006    0.5501161502    0.8349321981
H993       H   -0.1246429819    0.4663642145    0.6869105530
C994       C   -0.3915388111    0.5000000000    0.8915388111
H995       H   -0.3924853516    0.5536643977    0.8795235799
H996       H   -0.0795150257    0.4691723357    0.6436642983
H997       H   -0.1445929723    0.5311941064    0.5803040250
O998       O   -0.1962977724    0.5295957583    0.6202474774
H999       H   -0.2143029476    0.5135784757    0.6214162154
H1000      H   -0.1781447815    0.5412373563    0.7777827171
H1001      H   -0.2216952962    0.5403806905    0.8222387261
H1002      H   -0.3226349836    0.4472205594    0.7215238991
H1003      H   -0.2793448431    0.4486968772    0.6768108165
O1004      O   -0.3390495454    0.4349398193    0.8497392994
H1005      H   -0.3420523793    0.4301696202    0.8262549059
H1006      H   -0.3829870465    0.4455219277    0.8969818218
C915       C   -0.2991163731   -0.2262606879   -0.0393240578
C916       C   -0.2742428600   -0.2005880190   -0.0385258855
C917       C   -0.2430314503   -0.2051761998   -0.0213974253
C918       C   -0.2378939813   -0.2366654456   -0.0052474105
C919       C   -0.2067289211   -0.2413853588    0.0116796836
C920       C   -0.2017017427   -0.2729784698    0.0279358589
C921       C   -0.2267095074   -0.2985048754    0.0273967692
C922       C   -0.2580267065   -0.2938575128    0.0105265030
C923       C   -0.2630341773   -0.2624788470   -0.0058825131
C924       C   -0.2941632025   -0.2577905939   -0.0229126270
C925       C   -0.3207062941   -0.2854174412   -0.0237443798
O926       O   -0.3463871674   -0.2808568060   -0.0412363810
N927       N   -0.3149726904   -0.3145412946   -0.0059441497
C928       C   -0.2851066396   -0.3210071050    0.0104007397
O929       O   -0.2791329051   -0.3478882995    0.0253895160
C930       C   -0.3412575964   -0.3397723059   -0.0044008447
C931       C   -0.3518182969   -0.3575754408   -0.0338367790
C932       C   -0.3763655463   -0.3834696027   -0.0315445414
C933       C   -0.1084611889   -0.1084611889   -0.0000000000
C934       C   -0.3813198792   -0.3735046090    0.0292704472
C935       C   -0.3564580114   -0.3479171344    0.0271449041
C936       C   -0.1799570239   -0.2139477236    0.0122234141
O937       O   -0.1530504595   -0.2198765299    0.0272051202
N938       N   -0.1865380202   -0.1840418212   -0.0039950765
C939       C   -0.2165577217   -0.1775049070   -0.0198765394
O940       O   -0.2235415494   -0.1495554814   -0.0323879962
C941       C   -0.1608482350   -0.1581447068   -0.0034065635
C942       C   -0.1294184115   -0.1635709816   -0.0199527397
C943       C   -0.1035171683   -0.1389359651   -0.0182505514
C944       C   -0.1398805330   -0.1029793200    0.0165202212
C945       C   -0.1659562949   -0.1273267215    0.0144680317
H946       H   -0.3487943006   -0.3349321981    0.0501161502
H947       H   -0.1246429819   -0.1869105530   -0.0336357855
C948       C   -0.3915388111   -0.3915388111   -0.0000000000
H949       H   -0.3924853516   -0.3795235799    0.0536643977
H950       H   -0.0795150257   -0.1436642983   -0.0308276643
H951       H   -0.1445929723   -0.0803040250    0.0311941064
O952       O   -0.1962977724   -0.1202474774    0.0295957583
H953       H   -0.2143029476   -0.1214162154    0.0135784757
H954       H   -0.1781447815   -0.2777827171    0.0412373563
H955       H   -0.2216952962   -0.3222387261    0.0403806905
H956       H   -0.3226349836   -0.2215238991   -0.0527794406
H957       H   -0.2793448431   -0.1768108165   -0.0513031228
O958       O   -0.3390495454   -0.3497392994   -0.0650601807
H959       H   -0.3420523793   -0.3262549059   -0.0698303798
H960       H   -0.3829870465   -0.3969818218   -0.0544780723
C869       C   -0.2095051615    0.2651177774   -0.0515167490
C870       C   -0.2353426456    0.2898264754   -0.0520818375
C871       C   -0.2607659104    0.2910264395   -0.0267677043
C872       C   -0.2590098070    0.2664307661   -0.0008687059
C873       C   -0.2842016435    0.2676840766    0.0245058021
C874       C   -0.2824135290    0.2429062585    0.0504002571
C875       C   -0.2567652499    0.2180203674    0.0507669916
C876       C   -0.2315012520    0.2166145287    0.0253362061
C877       C   -0.2330839230    0.2414030527   -0.0003926779
C878       C   -0.2078214279    0.2402247757   -0.0257193182
C879       C   -0.1801483204    0.2137279443   -0.0249529872
O880       O   -0.1572194886    0.2155365380   -0.0463369629
N881       N   -0.1810398589    0.1894461560   -0.0003050429
C882       C   -0.2042975613    0.1895886941    0.0253854625
O883       O   -0.2044424966    0.1685362988    0.0486174056
C884       C   -0.1563731817    0.1625969160   -0.0010502590
C885       C   -0.1213769153    0.1692293470    0.0040709155
C886       C   -0.0977770663    0.1423877846    0.0050233265
C887       C   -0.3915388111    0.3915388111   -0.0000000000
C888       C   -0.1432850876    0.1018904242   -0.0055262306
C889       C   -0.1670067729    0.1286180814   -0.0060393120
C890       C   -0.3116908853    0.2944043673    0.0240350543
O891       O   -0.3327734302    0.2942995803    0.0472531676
N892       N   -0.3118851336    0.3175350250   -0.0017650793
C893       C   -0.2889138498    0.3170235214   -0.0276145101
O894       O   -0.2905497129    0.3363532564   -0.0523160504
C895       C   -0.3380947249    0.3429123332   -0.0019116831
C896       C   -0.3393965859    0.3676140210    0.0241495139
C897       C   -0.3658683447    0.3916785220    0.0250448714
C898       C   -0.3902516340    0.3668885131   -0.0260930979
C899       C   -0.3635889352    0.3431280485   -0.0273152334
H900       H   -0.1935742203    0.1226992810   -0.0098019867
H901       H   -0.3204391406    0.3680073246    0.0440298218
C902       C   -0.1084611889    0.1084611889   -0.0000000000
H903       H   -0.1519419937    0.0760490747   -0.0091653567
H904       H   -0.3666118875    0.4102087885    0.0453603856
H905       H   -0.4096090655    0.3654939372   -0.0454591506
O906       O   -0.3626547365    0.3208000137   -0.0537756793
H907       H   -0.3417418507    0.3225389862   -0.0656808382
H908       H   -0.3011954650    0.2428770364    0.0704546599
H909       H   -0.2565864490    0.1994795288    0.0710949411
H910       H   -0.1905998583    0.2652412590   -0.0714963335
H911       H   -0.2356453842    0.3081989562   -0.0725025055
O912       O   -0.1096010827    0.2016100726    0.0075587975
H913       H   -0.1164688223    0.2152238925   -0.0111705005
H914       H   -0.0714937515    0.1485373802    0.0098958005
C823       C    0.2728530149   -0.2017699240   -0.0409139836
C824       C    0.2985431176   -0.2266260035   -0.0401338511
C825       C    0.2943419749   -0.2574503750   -0.0222230676
C826       C    0.2632183587   -0.2622222143   -0.0052719840
C827       C    0.2588810572   -0.2930046630    0.0124394175
C828       C    0.2276559189   -0.2976638686    0.0294964679
C829       C    0.2021177334   -0.2726678838    0.0289690960
C830       C    0.2063837202   -0.2417320606    0.0113127370
C831       C    0.2373910946   -0.2370958811   -0.0058919080
C832       C    0.2416944773   -0.2063517263   -0.0237047839
C833       C    0.2140495240   -0.1798267407   -0.0245121947
O834       O    0.2182164478   -0.1545395788   -0.0426635844
N835       N    0.1853273159   -0.1851586991   -0.0059507773
C836       C    0.1792313673   -0.2146548882    0.0111885736
O837       O    0.1526892348   -0.2202895606    0.0268956805
C838       C    0.1601301334   -0.1588399643   -0.0044315020
C839       C    0.1416786343   -0.1489276280   -0.0336931152
C840       C    0.1158354280   -0.1243294229   -0.0313722477
C841       C    0.3915388111   -0.3915388111   -0.0000000000
C842       C    0.1271399604   -0.1180355514    0.0290835550
C843       C    0.1526803126   -0.1429445417    0.0269430231
C844       C    0.2863305389   -0.3197647137    0.0129681790
O845       O    0.2807406337   -0.3463323769    0.0286677871
N846       N    0.3158693334   -0.3135508252   -0.0040482590
C847       C    0.3220465662   -0.2838908050   -0.0207293735
O848       O    0.3497111376   -0.2771918316   -0.0340062722
C849       C    0.3417793952   -0.3392276629   -0.0034646123
C850       C    0.3359966681   -0.3710139389   -0.0191887002
C851       C    0.3606695885   -0.3968772781   -0.0174593761
C852       C    0.3973765482   -0.3597635989    0.0156971491
C853       C    0.3729833998   -0.3337335838    0.0136077879
H854       H    0.1661713006   -0.1501022006    0.0497855347
H855       H    0.3123617477   -0.3760847174   -0.0322441132
C856       C    0.1084611889   -0.1084611889   -0.0000000000
H857       H    0.1216585062   -0.1063325623    0.0533519359
H858       H    0.3556704825   -0.4211501935   -0.0293958023
H859       H    0.4203692535   -0.3547337492    0.0297589807
O860       O    0.3803876301   -0.3030671200    0.0279016478
H861       H    0.3788610221   -0.2854198148    0.0115203257
H862       H    0.2231523716   -0.3209201298    0.0434178695
H863       H    0.1786776630   -0.2773883148    0.0425816207
H864       H    0.2772857308   -0.1785553865   -0.0549868585
H865       H    0.3220310726   -0.2218132678   -0.0535426885
O866       O    0.1488263695   -0.1623847857   -0.0647923391
H867       H    0.1721989450   -0.1594937698   -0.0701452157
H868       H    0.1018183731   -0.1182127586   -0.0541423983
C777       C    0.2728530149    0.2017699240    0.0409139836
C778       C    0.2985431176    0.2266260035    0.0401338511
C779       C    0.2943419749    0.2574503750    0.0222230676
C780       C    0.2632183587    0.2622222143    0.0052719840
C781       C    0.2588810572    0.2930046630   -0.0124394175
C782       C    0.2276559189    0.2976638686   -0.0294964679
C783       C    0.2021177334    0.2726678838   -0.0289690960
C784       C    0.2063837202    0.2417320606   -0.0113127370
C785       C    0.2373910946    0.2370958811    0.0058919080
C786       C    0.2416944773    0.2063517263    0.0237047839
C787       C    0.2140495240    0.1798267407    0.0245121947
O788       O    0.2182164478    0.1545395788    0.0426635844
N789       N    0.1853273159    0.1851586991    0.0059507773
C790       C    0.1792313673    0.2146548882   -0.0111885736
O791       O    0.1526892348    0.2202895606   -0.0268956805
C792       C    0.1601301334    0.1588399643    0.0044315020
C793       C    0.1416786343    0.1489276280    0.0336931152
C794       C    0.1158354280    0.1243294229    0.0313722477
C795       C    0.3915388111    0.3915388111   -0.0000000000
C796       C    0.1271399604    0.1180355514   -0.0290835550
C797       C    0.1526803126    0.1429445417   -0.0269430231
C798       C    0.2863305389    0.3197647137   -0.0129681790
O799       O    0.2807406337    0.3463323769   -0.0286677871
N800       N    0.3158693334    0.3135508252    0.0040482590
C801       C    0.3220465662    0.2838908050    0.0207293735
O802       O    0.3497111376    0.2771918316    0.0340062722
C803       C    0.3417793952    0.3392276629    0.0034646123
C804       C    0.3359966681    0.3710139389    0.0191887002
C805       C    0.3606695885    0.3968772781    0.0174593761
C806       C    0.3973765482    0.3597635989   -0.0156971491
C807       C    0.3729833998    0.3337335838   -0.0136077879
H808       H    0.1661713006    0.1501022006   -0.0497855347
H809       H    0.3123617477    0.3760847174    0.0322441132
C810       C    0.1084611889    0.1084611889    0.0000000000
H811       H    0.1216585062    0.1063325623   -0.0533519359
H812       H    0.3556704825    0.4211501935    0.0293958023
H813       H    0.4203692535    0.3547337492   -0.0297589807
O814       O    0.3803876301    0.3030671200   -0.0279016478
H815       H    0.3788610221    0.2854198148   -0.0115203257
H816       H    0.2231523716    0.3209201298   -0.0434178695
H817       H    0.1786776630    0.2773883148   -0.0425816207
H818       H    0.2772857308    0.1785553865    0.0549868585
H819       H    0.3220310726    0.2218132678    0.0535426885
O820       O    0.1488263695    0.1623847857    0.0647923391
H821       H    0.1721989450    0.1594937698    0.0701452157
H822       H    0.1018183731    0.1182127586    0.0541423983
C731       C   -0.2276026340   -0.0416931251   -0.2977744271
C732       C   -0.2019039764   -0.0409222877   -0.2729269026
C733       C   -0.2059054134   -0.0226273160   -0.2423022368
C734       C   -0.2368398573   -0.0052823309   -0.2377195696
C735       C   -0.2409796469    0.0128143226   -0.2071346330
C736       C   -0.2720144447    0.0302651389   -0.2026657678
C737       C   -0.2975584147    0.0297438123   -0.2276559681
C738       C   -0.2934893378    0.0117012893   -0.2583948814
C739       C   -0.2626739173   -0.0058944475   -0.2628391070
C740       C   -0.2585691616   -0.0240917665   -0.2933846348
C741       C   -0.2862229533   -0.0248867247   -0.3199007820
O742       O   -0.2822580504   -0.0433608147   -0.3449859230
N743       N   -0.3147383377   -0.0059519132   -0.3147756474
C744       C   -0.3206430558    0.0115779703   -0.2854706888
O745       O   -0.3470099646    0.0276381094   -0.2800112400
C746       C   -0.3399188292   -0.0044451947   -0.3411110731
C747       C   -0.3586925947   -0.0336090511   -0.3507011429
C748       C   -0.3845101237   -0.0312747324   -0.3753250254
C749       C   -0.1084611889    0.0000000000   -0.1084611889
C750       C   -0.3725397716    0.0289795847   -0.3822847165
C751       C   -0.3470230702    0.0268323486   -0.3573520755
C752       C   -0.2135243743    0.0133354146   -0.1803803732
O753       O   -0.2189391398    0.0293878437   -0.1539878496
N754       N   -0.1841754642   -0.0040733419   -0.1864043772
C755       C   -0.1781844219   -0.0211477487   -0.2158782068
O756       O   -0.1506683994   -0.0348020974   -0.2224286314
C757       C   -0.1582589783   -0.0034923389   -0.1607339635
C758       C   -0.1642128726   -0.0188000882   -0.1287765205
C759       C   -0.1395208035   -0.0170578430   -0.1029323299
C760       C   -0.1024525845    0.0152803290   -0.1404072684
C761       C   -0.1268688804    0.0131731656   -0.1664141360
H762       H   -0.3332804909    0.0496022173   -0.3504460079
H763       H   -0.1879900611   -0.0315372587   -0.1235634737
C764       C   -0.3915388111   -0.0000000000   -0.3915388111
H765       H   -0.3777538990    0.0531763823   -0.3942550325
H766       H   -0.1446497996   -0.0286699158   -0.0785295244
H767       H   -0.0793064676    0.0290313315   -0.1455905297
O768       O   -0.1193092903    0.0270453268   -0.1972359595
H769       H   -0.1210175822    0.0104881701   -0.2147015809
H770       H   -0.2763627354    0.0444910660   -0.1795647632
H771       H   -0.3208466114    0.0436653200   -0.2230874109
H772       H   -0.2233268388   -0.0560692655   -0.3208320439
H773       H   -0.1785656567   -0.0546416795   -0.2775900029
O774       O   -0.3518875324   -0.0646348910   -0.3369013123
H775       H   -0.3285756027   -0.0702768310   -0.3397316825
H776       H   -0.3987778764   -0.0539549625   -0.3811909920
C685       C    0.2348822226   -0.0515167490   -0.2904948385
C686       C    0.2101735246   -0.0520818375   -0.2646573544
C687       C    0.2089735605   -0.0267677043   -0.2392340896
C688       C    0.2335692339   -0.0008687059   -0.2409901930
C689       C    0.2323159234    0.0245058021   -0.2157983565
C690       C    0.2570937415    0.0504002571   -0.2175864710
C691       C    0.2819796326    0.0507669916   -0.2432347501
C692       C    0.2833854713    0.0253362061   -0.2684987480
C693       C    0.2585969473   -0.0003926779   -0.2669160770
C694       C    0.2597752243   -0.0257193182   -0.2921785721
C695       C    0.2862720557   -0.0249529872   -0.3198516796
O696       O    0.2844634620   -0.0463369629   -0.3427805114
N697       N    0.3105538440   -0.0003050429   -0.3189601411
C698       C    0.3104113059    0.0253854625   -0.2957024387
O699       O    0.3314637012    0.0486174056   -0.2955575034
C700       C    0.3374030840   -0.0010502590   -0.3436268183
C701       C    0.3307706530    0.0040709155   -0.3786230847
C702       C    0.3576122154    0.0050233265   -0.4022229337
C703       C    0.1084611889    0.0000000000   -0.1084611889
C704       C    0.3981095758   -0.0055262306   -0.3567149124
C705       C    0.3713819186   -0.0060393120   -0.3329932271
C706       C    0.2055956327    0.0240350543   -0.1883091147
O707       O    0.2057004197    0.0472531676   -0.1672265698
N708       N    0.1824649750   -0.0017650793   -0.1881148664
C709       C    0.1829764786   -0.0276145101   -0.2110861502
O710       O    0.1636467436   -0.0523160504   -0.2094502871
C711       C    0.1570876668   -0.0019116831   -0.1619052751
C712       C    0.1323859790    0.0241495139   -0.1606034141
C713       C    0.1083214780    0.0250448714   -0.1341316553
C714       C    0.1331114869   -0.0260930979   -0.1097483660
C715       C    0.1568719515   -0.0273152334   -0.1364110648
H716       H    0.3773007190   -0.0098019867   -0.3064257797
H717       H    0.1319926754    0.0440298218   -0.1795608594
C718       C    0.3915388111   -0.0000000000   -0.3915388111
H719       H    0.4239509253   -0.0091653567   -0.3480580063
H720       H    0.0897912115    0.0453603856   -0.1333881125
H721       H    0.1345060628   -0.0454591506   -0.0903909345
O722       O    0.1791999863   -0.0537756793   -0.1373452635
H723       H    0.1774610138   -0.0656808382   -0.1582581493
H724       H    0.2571229636    0.0704546599   -0.1988045350
H725       H    0.3005204712    0.0710949411   -0.2434135510
H726       H    0.2347587410   -0.0714963335   -0.3094001417
H727       H    0.1918010438   -0.0725025055   -0.2643546158
O728       O    0.2983899274    0.0075587975   -0.3903989173
H729       H    0.2847761075   -0.0111705005   -0.3835311777
H730       H    0.3514626198    0.0098958005   -0.4285062485
C639       C    0.2991163731    0.0393240578    0.2262606879
C640       C    0.2742428600    0.0385258855    0.2005880190
C641       C    0.2430314503    0.0213974253    0.2051761998
C642       C    0.2378939813    0.0052474105    0.2366654456
C643       C    0.2067289211   -0.0116796836    0.2413853588
C644       C    0.2017017427   -0.0279358589    0.2729784698
C645       C    0.2267095074   -0.0273967692    0.2985048754
C646       C    0.2580267065   -0.0105265030    0.2938575128
C647       C    0.2630341773    0.0058825131    0.2624788470
C648       C    0.2941632025    0.0229126270    0.2577905939
C649       C    0.3207062941    0.0237443798    0.2854174412
O650       O    0.3463871674    0.0412363810    0.2808568060
N651       N    0.3149726904    0.0059441497    0.3145412946
C652       C    0.2851066396   -0.0104007397    0.3210071050
O653       O    0.2791329051   -0.0253895160    0.3478882995
C654       C    0.3412575964    0.0044008447    0.3397723059
C655       C    0.3518182969    0.0338367790    0.3575754408
C656       C    0.3763655463    0.0315445414    0.3834696027
C657       C    0.1084611889    0.0000000000    0.1084611889
C658       C    0.3813198792   -0.0292704472    0.3735046090
C659       C    0.3564580114   -0.0271449041    0.3479171344
C660       C    0.1799570239   -0.0122234141    0.2139477236
O661       O    0.1530504595   -0.0272051202    0.2198765299
N662       N    0.1865380202    0.0039950765    0.1840418212
C663       C    0.2165577217    0.0198765394    0.1775049070
O664       O    0.2235415494    0.0323879962    0.1495554814
C665       C    0.1608482350    0.0034065635    0.1581447068
C666       C    0.1294184115    0.0199527397    0.1635709816
C667       C    0.1035171683    0.0182505514    0.1389359651
C668       C    0.1398805330   -0.0165202212    0.1029793200
C669       C    0.1659562949   -0.0144680317    0.1273267215
H670       H    0.3487943006   -0.0501161502    0.3349321981
H671       H    0.1246429819    0.0336357855    0.1869105530
C672       C    0.3915388111   -0.0000000000    0.3915388111
H673       H    0.3924853516   -0.0536643977    0.3795235799
H674       H    0.0795150257    0.0308276643    0.1436642983
H675       H    0.1445929723   -0.0311941064    0.0803040250
O676       O    0.1962977724   -0.0295957583    0.1202474774
H677       H    0.2143029476   -0.0135784757    0.1214162154
H678       H    0.1781447815   -0.0412373563    0.2777827171
H679       H    0.2216952962   -0.0403806905    0.3222387261
H680       H    0.3226349836    0.0527794406    0.2215238991
H681       H    0.2793448431    0.0513031228    0.1768108165
O682       O    0.3390495454    0.0650601807    0.3497392994
H683       H    0.3420523793    0.0698303798    0.3262549059
H684       H    0.3829870465    0.0544780723    0.3969818218
C593       C   -0.2737393121    0.0393240578    0.2008836269
C594       C   -0.2994119810    0.0385258855    0.2257571400
C595       C   -0.2948238002    0.0213974253    0.2569685497
C596       C   -0.2633345544    0.0052474105    0.2621060187
C597       C   -0.2586146412   -0.0116796836    0.2932710789
C598       C   -0.2270215302   -0.0279358589    0.2982982573
C599       C   -0.2014951246   -0.0273967692    0.2732904926
C600       C   -0.2061424872   -0.0105265030    0.2419732935
C601       C   -0.2375211530    0.0058825131    0.2369658227
C602       C   -0.2422094061    0.0229126270    0.2058367975
C603       C   -0.2145825588    0.0237443798    0.1792937059
O604       O   -0.2191431940    0.0412363810    0.1536128326
N605       N   -0.1854587054    0.0059441497    0.1850273096
C606       C   -0.1789928950   -0.0104007397    0.2148933604
O607       O   -0.1521117005   -0.0253895160    0.2208670949
C608       C   -0.1602276941    0.0044008447    0.1587424036
C609       C   -0.1424245592    0.0338367790    0.1481817031
C610       C   -0.1165303973    0.0315445414    0.1236344537
C611       C   -0.3915388111   -0.0000000000    0.3915388111
C612       C   -0.1264953910   -0.0292704472    0.1186801208
C613       C   -0.1520828656   -0.0271449041    0.1435419886
C614       C   -0.2860522764   -0.0122234141    0.3200429761
O615       O   -0.2801234701   -0.0272051202    0.3469495405
N616       N   -0.3159581788    0.0039950765    0.3134619798
C617       C   -0.3224950930    0.0198765394    0.2834422783
O618       O   -0.3504445186    0.0323879962    0.2764584506
C619       C   -0.3418552932    0.0034065635    0.3391517650
C620       C   -0.3364290184    0.0199527397    0.3705815885
C621       C   -0.3610640349    0.0182505514    0.3964828317
C622       C   -0.3970206800   -0.0165202212    0.3601194670
C623       C   -0.3726732785   -0.0144680317    0.3340437051
H624       H   -0.1650678019   -0.0501161502    0.1512056994
H625       H   -0.3130894470    0.0336357855    0.3753570181
C626       C   -0.1084611889   -0.0000000000    0.1084611889
H627       H   -0.1204764201   -0.0536643977    0.1075146484
H628       H   -0.3563357017    0.0308276643    0.4204849743
H629       H   -0.4196959750   -0.0311941064    0.3554070277
O630       O   -0.3797525226   -0.0295957583    0.3037022276
H631       H   -0.3785837846   -0.0135784757    0.2856970524
H632       H   -0.2222172829   -0.0412373563    0.3218552185
H633       H   -0.1777612739   -0.0403806905    0.2783047038
H634       H   -0.2784761009    0.0527794406    0.1773650164
H635       H   -0.3231891835    0.0513031228    0.2206551569
O636       O   -0.1502607006    0.0650601807    0.1609504546
H637       H   -0.1737450941    0.0698303798    0.1579476207
H638       H   -0.1030181782    0.0544780723    0.1170129535
C547       C   -0.0465789932    0.2054464860   -0.2691764530
C548       C   -0.0472333130    0.2312335175   -0.2939356035
C549       C   -0.0240895466    0.2586617102   -0.2931306397
C550       C   -0.0002507941    0.2589634881   -0.2664770850
C551       C    0.0229764196    0.2861662031   -0.2657195170
C552       C    0.0467982786    0.2864350830   -0.2388847046
C553       C    0.0472253823    0.2608196486   -0.2139659686
C554       C    0.0239356475    0.2335398570   -0.2145759238
C555       C    0.0002960549    0.2330799252   -0.2414070505
C556       C   -0.0228716030    0.2058109962   -0.2422352074
C557       C   -0.0220134977    0.1782050992   -0.2156711655
O558       O   -0.0412115280    0.1535972018   -0.2191588249
N559       N    0.0003902802    0.1810433856   -0.1894426294
C560       C    0.0239992351    0.2063408352   -0.1875454203
O561       O    0.0453245628    0.2083293113   -0.1646494841
C562       C   -0.0005298397    0.1563078057   -0.1626622920
C563       C    0.0079893782    0.1218759056   -0.1687303568
C564       C    0.0086679557    0.0983435381   -0.1418213128
C565       C   -0.0000000000    0.3915388111   -0.3915388111
C566       C   -0.0089022098    0.1426881162   -0.1024873957
C567       C   -0.0091638967    0.1663777457   -0.1292471086
C568       C    0.0224454712    0.3136140001   -0.2924812525
O569       O    0.0437578881    0.3365389795   -0.2905340311
N570       N   -0.0012871050    0.3117588506   -0.3176613080
C571       C   -0.0251079483    0.2867324773   -0.3192048939
O572       O   -0.0481817641    0.2863916524   -0.3405113168
C573       C   -0.0015013443    0.3379535122   -0.3430535460
C574       C    0.0263117209    0.3414844011   -0.3655262059
C575       C    0.0270024492    0.3680217836   -0.3895250831
C576       C   -0.0278417214    0.3880201005   -0.3691200466
C577       C   -0.0288161785    0.3612665185   -0.3454504651
H578       H   -0.0155799356    0.1925240525   -0.1237494488
H579       H    0.0476521608    0.3242324491   -0.3642140160
C580       C    0.0000000000    0.1084611889   -0.1084611889
H581       H   -0.0153614673    0.1509272053   -0.0770638631
H582       H    0.0486461453    0.3705013735   -0.4063193026
H583       H   -0.0487869729    0.4057096665   -0.3693933361
O584       O   -0.0568603402    0.3580772115   -0.3253775386
H585       H   -0.0668162283    0.3362598329   -0.3280210040
H586       H    0.0651645303    0.3068066595   -0.2372658419
H587       H    0.0659003515    0.2622545792   -0.1938113985
H588       H   -0.0648529900    0.1849584548   -0.2708826625
H589       H   -0.0660244726    0.2299138810   -0.3139304594
O590       O    0.0150949143    0.1105383718   -0.2006727835
H591       H   -0.0029502451    0.1158845816   -0.2158081332
H592       H    0.0161818221    0.0725727036   -0.1474584281
C501       C    0.0333770959   -0.2765945856   -0.1980283533
C502       C    0.0325212537   -0.3022022946   -0.2229668264
C503       C    0.0183014946   -0.2963829402   -0.2554094097
C504       C    0.0051189319   -0.2637416833   -0.2616988898
C505       C   -0.0088940136   -0.2578066275   -0.2940790926
C506       C   -0.0221825870   -0.2250531726   -0.3002666150
C507       C   -0.0216062001   -0.1995705763   -0.2752150409
C508       C   -0.0076559652   -0.2054283869   -0.2426873939
C509       C    0.0058028445   -0.2379800851   -0.2365068906
C510       C    0.0199234773   -0.2438917562   -0.2041544474
C511       C    0.0208349794   -0.2163333737   -0.1775428910
O512       O    0.0358512783   -0.2221707437   -0.1505852829
N513       N    0.0058738069   -0.1859228452   -0.1845631698
C514       C   -0.0075255207   -0.1782888570   -0.2155973985
O515       O   -0.0198493434   -0.1503349843   -0.2226438111
C516       C    0.0042574676   -0.1605677417   -0.1584023560
C517       C    0.0340794768   -0.1450919101   -0.1455143522
C518       C    0.0319068107   -0.1190223930   -0.1211424579
C519       C    0.0000000000   -0.3915388111   -0.3915388111
C520       C   -0.0297023968   -0.1241792847   -0.1209962271
C521       C   -0.0276467475   -0.1499309720   -0.1456938823
C522       C   -0.0094865314   -0.2851996375   -0.3208956151
O523       O   -0.0218048590   -0.2781986465   -0.3488743641
N524       N    0.0037750343   -0.3162633430   -0.3131568156
C525       C    0.0166961862   -0.3239314544   -0.2820059168
O526       O    0.0263951804   -0.3527531759   -0.2741497933
C527       C    0.0031739060   -0.3421137353   -0.3388933228
C528       C    0.0225043872   -0.3380964846   -0.3689141224
C529       C    0.0209118228   -0.3626021026   -0.3949447641
C530       C   -0.0193082186   -0.3956135497   -0.3615265973
C531       C   -0.0174039940   -0.3714215329   -0.3352954507
H532       H   -0.0508933882   -0.1611007415   -0.1551727597
H533       H    0.0383048625   -0.3159148524   -0.3725316128
C534       C    0.0000000000   -0.1084611889   -0.1084611889
H535       H   -0.0543493091   -0.1162342772   -0.1117567913
H536       H    0.0356613634   -0.3589469995   -0.4178736765
H537       H   -0.0360364891   -0.4170555528   -0.3580474499
O538       O   -0.0353689641   -0.3772010905   -0.3062536597
H539       H   -0.0207686066   -0.3772348333   -0.2870460037
H540       H   -0.0331813973   -0.2192945521   -0.3247779493
H541       H   -0.0322590945   -0.1749084106   -0.2811575672
H542       H    0.0445371306   -0.2822981232   -0.1735429941
H543       H    0.0429584675   -0.3268912241   -0.2169531163
O544       O    0.0654970842   -0.1553882218   -0.1558229334
H545       H    0.0681638162   -0.1791646942   -0.1525280206
H546       H    0.0552388700   -0.1073272141   -0.1127039175
C455       C    0.0086215346   -0.2827318729    0.1918910660
C456       C    0.0095855056   -0.3078884220    0.2172806990
C457       C    0.0037973607   -0.2999787398    0.2518136101
C458       C   -0.0030962117   -0.2657783447    0.2596622283
C459       C   -0.0090694353   -0.2578501172    0.2940356029
C460       C   -0.0158847283   -0.2234918358    0.3018279518
C461       C   -0.0165252427   -0.1983109283    0.2764746890
C462       C   -0.0104720415   -0.2061265358    0.2419892450
C463       C   -0.0038818997   -0.2403810833    0.2341058924
C464       C    0.0019846304   -0.2483390744    0.1997071292
C465       C    0.0008546145   -0.2212868158    0.1725894488
O466       O    0.0036066560   -0.2301646853    0.1425913413
N467       N   -0.0039874506   -0.1883676038    0.1821184112
C468       C   -0.0105957991   -0.1790500266    0.2148362289
O469       O   -0.0164245982   -0.1494859369    0.2234928585
C470       C   -0.0023692219   -0.1622106007    0.1567594970
C471       C   -0.0268047878   -0.1601860629    0.1304201994
C472       C   -0.0258573874   -0.1333430329    0.1068218180
C473       C    0.0000000000   -0.3915388111    0.3915388111
C474       C    0.0246049668   -0.1107156476    0.1344598642
C475       C    0.0234647843   -0.1372596311    0.1583652232
C476       C   -0.0083520909   -0.2849183921    0.3211768605
O477       O   -0.0141761103   -0.2763073614    0.3507656491
N478       N   -0.0015768461   -0.3175901572    0.3118300014
C479       C    0.0054715716   -0.3267142104    0.2792231609
O480       O    0.0140912622   -0.3558035079    0.2710994613
C481       C   -0.0010570400   -0.3431626524    0.3378444058
C482       C   -0.0311850026   -0.3514069164    0.3556036905
C483       C   -0.0306144870   -0.3753762733    0.3821705933
C484       C    0.0301321669   -0.3833565119    0.3737836352
C485       C    0.0295452301   -0.3597820926    0.3469348910
H486       H    0.0423685209   -0.1379796689    0.1782938324
H487       H   -0.0549178776   -0.3390262144    0.3494202507
C488       C    0.0000000000   -0.1084611889    0.1084611889
H489       H    0.0444273454   -0.0917460137    0.1362450547
H490       H   -0.0538730868   -0.3811439774    0.3956766987
H491       H    0.0542020378   -0.3946840234    0.3804189792
O492       O    0.0589525089   -0.3538173356    0.3296374146
H493       H    0.0560447983   -0.3581915998    0.3060892372
H494       H   -0.0206597535   -0.2161902426    0.3278822588
H495       H   -0.0217182549   -0.1722951731    0.2837708047
H496       H    0.0132348419   -0.2900584457    0.1657826716
H497       H    0.0149902273   -0.3338249843    0.2100193561
O498       O   -0.0513493719   -0.1843562692    0.1268548861
H499       H   -0.0414787984   -0.2063467976    0.1253459172
H500       H   -0.0455192020   -0.1323067017    0.0877244299
C409       C   -0.0508960981    0.2656834993    0.2089394396
C410       C   -0.0514735876    0.2903985088    0.2347706122
C411       C   -0.0264301434    0.2913203009    0.2604720490
C412       C   -0.0007866191    0.2664399100    0.2590006631
C413       C    0.0243203384    0.2674143642    0.2844713559
C414       C    0.0499576613    0.2423518879    0.2829678996
C415       C    0.0503327733    0.2174618989    0.2573237183
C416       C    0.0251686573    0.2163355432    0.2317802376
C417       C   -0.0003007269    0.2414068830    0.2330800927
C418       C   -0.0253582131    0.2405069247    0.2075392789
C419       C   -0.0245789811    0.2140015557    0.1798747090
O420       O   -0.0456870678    0.2160448727    0.1567111539
N421       N   -0.0002121397    0.1894490129    0.1810370021
C422       C    0.0252198726    0.1893091536    0.2045771019
O423       O    0.0482148091    0.1680014039    0.2049773915
C424       C   -0.0009813760    0.1626081386    0.1563619591
C425       C    0.0045990538    0.1691814547    0.1214248076
C426       C    0.0055155367    0.1423295686    0.0978352823
C427       C    0.0000000000    0.3915388111    0.3915388111
C428       C   -0.0059828510    0.1019539996    0.1432215122
C429       C   -0.0064626623    0.1286871415    0.1669377128
C430       C    0.0238411533    0.2941399022    0.3119553503
O431       O    0.0468223723    0.2937799132    0.3332930974
N432       N   -0.0017024484    0.3175541794    0.3118659793
C433       C   -0.0273006068    0.3173268689    0.2886105023
O434       O   -0.0518036646    0.3369284069    0.2899745624
C435       C   -0.0018582288    0.3429331580    0.3380739002
C436       C    0.0244582900    0.3673455147    0.3396650922
C437       C    0.0253269448    0.3914002713    0.3661465953
C438       C   -0.0263480103    0.3671781943    0.3899619527
C439       C   -0.0275379350    0.3434310538    0.3632859298
H440       H   -0.0105837596    0.1228118905    0.1934616107
H441       H    0.0445499430    0.3675180158    0.3209284494
C442       C    0.0000000000    0.1084611889    0.1084611889
H443       H   -0.0100026419    0.0761549575    0.1518361110
H444       H    0.0458364730    0.4097050230    0.3671156530
H445       H   -0.0459409509    0.3659988253    0.4091041773
O446       O   -0.0542314933    0.3213966382    0.3620581119
H447       H   -0.0658849598    0.3232657471    0.3410150898
H448       H    0.0698018060    0.2421022689    0.3019702325
H449       H    0.0704553928    0.1986976140    0.2573683638
H450       H   -0.0706630294    0.2660265380    0.1898145793
H451       H   -0.0716921432    0.3089954780    0.2348488624
O452       O    0.0085743163    0.2015209543    0.1096902010
H453       H   -0.0100781707    0.2153412688    0.1163514460
H454       H    0.0107457087    0.1484233578    0.0716077738
loop_
_geom_bond_atom_site_label_1
_geom_bond_atom_site_label_2
_geom_bond_distance
_geom_bond_site_symmetry_2
_ccdc_geom_bond_type
