data_she_v1-tetracenter_v2-6c_Zr_1_Ch_dummy_1-tetraedgenobond
_audit_creation_date              2024-12-10
_audit_creation_method            'tobacco_3.0'
_symmetry_space_group_name_H-M    'P1'
_symmetry_Int_Tables_number       1
_symmetry_cell_setting            triclinic
loop_
_symmetry_equiv_pos_as_xyz
  x,y,z
_cell_length_a                    37.541853820162146
_cell_length_b                    37.7512864224147
_cell_length_c                    37.775417785764
_cell_angle_alpha                 90.0547325094789
_cell_angle_beta                  93.19516391978756
_cell_angle_gamma                 93.2073127889403
loop_
_atom_site_label
_atom_site_type_symbol
_atom_site_fract_x
_atom_site_fract_y
_atom_site_fract_z
N1         N   -0.0530124634    0.2510080784    0.4923491175
C2         C   -0.0779204102    0.2501292991    0.5180386694
C3         C   -0.0726972562    0.2497659531    0.4602386727
C4         C   -0.1135521600    0.2474545597    0.5016940242
C5         C   -0.1103302743    0.2471909825    0.4660644838
N6         N   -0.0047444911    0.2502366279    0.5523511077
C7         C   -0.0359400815    0.2514282267    0.5701046170
C8         C    0.0225406973    0.2500419525    0.5785598024
C9         C    0.0081025255    0.2511302984    0.6130459627
C10        C   -0.0278803573    0.2525131992    0.6078279457
N11        N    0.0529348507    0.2481399008    0.5076223154
C12        C    0.0725542377    0.2478057555    0.5397550833
C13        C    0.0778712546    0.2485130175    0.4819438523
C14        C    0.1101979176    0.2482650743    0.5339800291
C15        C    0.1134782959    0.2487513537    0.4983362841
N16        N    0.0048010385    0.2505531800    0.4476610587
C17        C   -0.0224540932    0.2512855720    0.4214735807
C18        C    0.0361006305    0.2509530846    0.4299013782
C19        C    0.0281877156    0.2520070341    0.3921869558
C20        C   -0.0078590024    0.2526562418    0.3870089870
C21        C   -0.0707407104    0.2510750868    0.5547621779
C22        C   -0.0591264237    0.2504941087    0.4265013758
C23        C    0.0708082177    0.2498532038    0.4452305453
C24        C    0.0590589163    0.2485776007    0.5735059010
H25        H   -0.1376284409    0.2457336097    0.5160868120
H26        H   -0.1312292327    0.2452156071    0.4452253315
H27        H    0.0239149468    0.2510051342    0.6377890276
H28        H   -0.0476193978    0.2538591907    0.6274145706
H29        H    0.1310639748    0.2486075120    0.5548699438
H30        H    0.1375885330    0.2495698347    0.4839758941
H31        H    0.0480450261    0.2522915517    0.3725882907
H32        H   -0.0236209674    0.2537266996    0.3622961106
Co33      Co    0.0000005587    0.2499852336    0.5000000522
D100       D    0.2829266898    0.2267228458    0.1879947986
D101       D    0.3154138061    0.2465722939    0.1961876461
D102       D    0.2987393942    0.2655846685    0.2223289663
D103       D    0.2662522780    0.2457352204    0.2141361189
D104       D    0.3040312854    0.2238773821    0.2048921890
D105       D    0.2873568736    0.2428897567    0.2310335093
D106       D    0.2776347986    0.2684301322    0.2054315759
D107       D    0.2943092103    0.2494177576    0.1792902557
Zr34      Zr    0.2941469279    0.2433598577    0.2085212256
D108       D    0.2360873534    0.2665553996    0.3365126400
D109       D    0.2675316606    0.2881227302    0.3445137892
D110       D    0.2759694205    0.2869260427    0.3085258725
D111       D    0.2445251132    0.2653587120    0.3005247234
D112       D    0.2422174891    0.2926785560    0.3370926213
D113       D    0.2506552490    0.2914818684    0.3011047047
D114       D    0.2698392847    0.2608028863    0.3079458912
D115       D    0.2614015248    0.2619995738    0.3439338080
Zr46      Zr    0.2594862936    0.2720576941    0.3297075979
D116       D    0.2515341102    0.3195246920    0.2220664255
D117       D    0.2249700981    0.2944979873    0.2330288168
D118       D    0.2431055973    0.2927384056    0.2667591385
D119       D    0.2696696095    0.3177651103    0.2557967470
D120       D    0.2283346398    0.3209607992    0.2336312416
D121       D    0.2464701389    0.3192012173    0.2673615632
D122       D    0.2663050678    0.2913022984    0.2551943222
D123       D    0.2481695686    0.2930618802    0.2214640007
Zr47      Zr    0.2524392402    0.3137582603    0.2468103138
D124       D    0.2891378592    0.1760485695    0.2899936618
D125       D    0.2940092602    0.2073149714    0.2698287757
D126       D    0.3056815370    0.2263326284    0.3010041239
D127       D    0.3008101360    0.1950662265    0.3211690100
D128       D    0.3093780176    0.1875428517    0.2772927553
D129       D    0.3210502945    0.2065605087    0.3084681036
D130       D    0.2854413786    0.2148383462    0.3137050304
D131       D    0.2737691018    0.1958206892    0.2825296821
Zr48      Zr    0.3011946295    0.2016570496    0.2914232802
D133       D    0.3295065928    0.2728230229    0.2657089335
D134       D    0.3116020722    0.2975015640    0.2854413995
D135       D    0.3421462126    0.3025464452    0.3089257757
D136       D    0.3513826598    0.2892496044    0.2666684477
D137       D    0.3334781392    0.3139281455    0.2864009135
D138       D    0.3202701456    0.2861198636    0.3079662617
D139       D    0.3381746662    0.2614413225    0.2882337957
D132       D    0.3600507332    0.2778679040    0.2891933097
Zr49      Zr    0.3360020623    0.2891359008    0.2817937342
D140       D    0.2313121596    0.2423078196    0.2417034572
D141       D    0.2345867499    0.2223680080    0.2732767949
D142       D    0.2064165459    0.1985600874    0.2603477159
D143       D    0.2031419556    0.2184998990    0.2287743782
D144       D    0.2454362892    0.2218097541    0.2497133397
D145       D    0.2172660852    0.1980018334    0.2367842607
D146       D    0.1922924163    0.2190581530    0.2523378335
D147       D    0.2204626203    0.2428660736    0.2652669125
Zr64      Zr    0.2176318074    0.2262794090    0.2564398597
H91        H    0.2841053720    0.2167593811    0.1459152573
H99        H    0.2464684532    0.2248319671    0.1589262749
O35        O    0.2686275334    0.2131064998    0.1661504658
H82        H    0.3747144248    0.3474392781    0.2799553376
H96        H    0.3473806996    0.3473041002    0.2473184307
O51        O    0.3488664622    0.3437949604    0.2732868305
H83        H    0.1998096981    0.3484775480    0.2221287971
H98        H    0.1944076342    0.3103144212    0.2060958367
O66        O    0.1992968528    0.3231056156    0.2288619036
H88        H    0.1756700957    0.1698742228    0.2593635754
H97        H    0.2066100409    0.1656832121    0.2879512648
O68        O    0.2020800957    0.1717243645    0.2627183333
H90        H    0.3097291372    0.2883646346    0.3772465837
H94        H    0.2916266213    0.3233353123    0.3669096618
O71        O    0.2860330805    0.2985476709    0.3740939578
H86        H    0.3526205422    0.1674452135    0.3197310819
H93        H    0.3699076193    0.1964592370    0.2956742356
O72        O    0.3527788907    0.1931639233    0.3145161168
H78        H    0.3474678377    0.2305669610    0.2523108874
O43        O    0.3240298351    0.2394685493    0.2571307657
H81        H    0.2301553396    0.2642418776    0.2026560679
O44        O    0.2458278739    0.2625178706    0.2243922841
H87        H    0.2902525308    0.1355264148    0.3042131782
O50        O    0.2731345825    0.1517213771    0.2929735043
H79        H    0.2899703065    0.3286893531    0.3045878796
O53        O    0.2849934621    0.3053552361    0.2929661459
H80        H    0.2404727301    0.2059603787    0.3173157085
O55        O    0.2524218473    0.2234890652    0.3019774831
H95        H    0.2937412667    0.3656944945    0.2254660444
O59        O    0.2789442197    0.3647035171    0.2463304896
H92        H    0.1782866609    0.1970473832    0.2039017225
O63        O    0.2045827370    0.2009602558    0.2068587304
H84        H    0.1513102093    0.2357327824    0.2396215067
O67        O    0.1722911610    0.2522894072    0.2364486064
H85        H    0.4027026156    0.2824711816    0.2991626027
O75        O    0.3822832832    0.2652121719    0.3025003115
H89        H    0.3438773037    0.3322387131    0.3357817701
O76        O    0.3549832081    0.3094672147    0.3321171565
O42        O    0.3012120224    0.2919262446    0.2362561108
O45        O    0.2686404077    0.2100600737    0.2452674480
O52        O    0.3078112748    0.2528975407    0.3138408008
O54        O    0.2296040346    0.2759467606    0.2811028282
O36        O    0.3485054846    0.2622852420    0.1930368933
O41        O    0.3747495844    0.2909853038    0.2389746018
C56        C    0.3725313887    0.2790659016    0.2091792402
O37        O    0.2820819691    0.2818544477    0.1652319245
O39        O    0.2559316700    0.3260010525    0.1892364962
C58        C    0.2680022595    0.3098723559    0.1654213703
O38        O    0.3252537769    0.1666009148    0.2526690619
O40        O    0.3208391086    0.1927486476    0.2006878885
C57        C    0.3289888327    0.1696445382    0.2212260762
O60        O    0.2283800928    0.3488143950    0.2855645320
O61        O    0.2327947611    0.3226666622    0.3375457054
C62        C    0.2246456852    0.3457685296    0.3170122881
O65        O    0.2051283852    0.2531300678    0.3451967006
O69        O    0.1788842853    0.2244300060    0.2992589922
C70        C    0.1811024810    0.2363494082    0.3290543537
O73        O    0.2715519006    0.2335608621    0.3730016694
O74        O    0.2977021997    0.1894142573    0.3489970978
C77        C    0.2856316102    0.2055429539    0.3728122237
D214       D    0.7001459600    0.2274305172    0.7899586175
D215       D    0.6699645758    0.2469424598    0.7806288935
D216       D    0.6903371518    0.2676092265    0.7570147573
D217       D    0.7205185360    0.2480972838    0.7663444812
D218       D    0.6800052760    0.2249395439    0.7714981114
D219       D    0.7003778520    0.2456063105    0.7478839750
D220       D    0.7104778358    0.2701001998    0.7754752634
D221       D    0.6901052599    0.2494334331    0.7990893996
Zr148     Zr    0.6919228197    0.2448170867    0.7697507977
D222       D    0.7618016252    0.2756031996    0.6483487783
D223       D    0.7328043217    0.2968465907    0.6393850208
D224       D    0.7215371468    0.2936919595    0.6744030788
D225       D    0.7505344504    0.2724485684    0.6833668361
D226       D    0.7580288142    0.3016079084    0.6488502980
D227       D    0.7467616393    0.2984532773    0.6838683559
D228       D    0.7253099580    0.2676872507    0.6739015590
D229       D    0.7365771329    0.2708418818    0.6388835010
Zr160     Zr    0.7383253916    0.2802411240    0.6537211110
D230       D    0.7424456006    0.3225845057    0.7638451916
D231       D    0.7676663221    0.2987042304    0.7534410199
D232       D    0.7518626889    0.2981927016    0.7185608987
D233       D    0.7266419674    0.3220729768    0.7289650705
D234       D    0.7666977809    0.3251120264    0.7541408638
D235       D    0.7508941479    0.3246004975    0.7192607426
D236       D    0.7276105084    0.2956651809    0.7282652266
D237       D    0.7434141416    0.2961767097    0.7631453477
Zr161     Zr    0.7428822131    0.3180150143    0.7388973048
D238       D    0.6970614204    0.1816430460    0.6853713206
D239       D    0.6934511865    0.2117986907    0.7068430207
D240       D    0.6857867299    0.2320780277    0.6761772301
D241       D    0.6893969638    0.2019223831    0.6547055300
D242       D    0.6768430623    0.1920526958    0.6971708617
D243       D    0.6691786057    0.2123320328    0.6665050711
D244       D    0.7060050880    0.2216683780    0.6643776890
D245       D    0.7136695446    0.2013890410    0.6950434796
Zr162     Zr    0.6873655068    0.2070411750    0.6845696940
D247       D    0.6633978177    0.2762815209    0.7121691650
D248       D    0.6850273510    0.3023255540    0.6953321123
D249       D    0.6566221682    0.3078327985    0.6701115693
D250       D    0.6430049850    0.2922559634    0.7105859991
D251       D    0.6646345183    0.3182999966    0.6937489465
D252       D    0.6770150009    0.2918583560    0.6716947350
D253       D    0.6553854676    0.2658143228    0.6885317878
D246       D    0.6349926349    0.2817887654    0.6869486220
Zr163     Zr    0.6595485088    0.2932325501    0.6966916520
D254       D    0.7573079202    0.2468140503    0.7413345680
D255       D    0.7546186946    0.2283577958    0.7086140019
D256       D    0.7797641898    0.2045585515    0.7220980612
D257       D    0.7824534154    0.2230148060    0.7548186273
D258       D    0.7419237240    0.2263972635    0.7311689411
D259       D    0.7670692191    0.2025980192    0.7446530004
D260       D    0.7951483861    0.2249753383    0.7322636881
D261       D    0.7700028909    0.2487745825    0.7187796288
Zr178     Zr    0.7706992111    0.2318236391    0.7267753468
H205       H    0.6949165930    0.2153766263    0.8310359311
H213       H    0.7343414452    0.2249354603    0.8213318524
O149       O    0.7116258001    0.2130684013    0.8118733497
H196       H    0.6258013798    0.3505525439    0.6991013956
H210       H    0.6507387676    0.3494313166    0.7334542970
O165       O    0.6508865024    0.3471654220    0.7073810350
H197       H    0.7968811524    0.3526987723    0.7692256557
H212       H    0.7976905317    0.3138824934    0.7832993425
O180       O    0.7956391274    0.3276774579    0.7611053873
H202       H    0.8079542787    0.1765278923    0.7236354681
H211       H    0.7787122270    0.1730440158    0.6927855539
O182       O    0.7818969965    0.1779459541    0.7184977671
H204       H    0.6929838156    0.2977436341    0.6038640126
H208       H    0.7134714322    0.3326038154    0.6174701299
O185       O    0.7174083991    0.3083034742    0.6093052087
H200       H    0.6348906439    0.1730700114    0.6507609838
H207       H    0.6183415761    0.2005025146    0.6750608691
O186       O    0.6366329326    0.1985205690    0.6574211812
H192       H    0.6406201756    0.2329755944    0.7216942049
O157       O    0.6652704873    0.2426402115    0.7191331937
H195       H    0.7574907936    0.2668489384    0.7814318990
O158       O    0.7432586626    0.2658393948    0.7586309632
H201       H    0.6933995544    0.1418074683    0.6688236191
O164       O    0.7111587334    0.1578314938    0.6821599033
H193       H    0.7109294201    0.3349320748    0.6797262195
O167       O    0.7129656569    0.3111470526    0.6902569959
H194       H    0.7505626184    0.2139859563    0.6635436301
O169       O    0.7389953120    0.2304856767    0.6789129722
H209       H    0.7045069018    0.3679532920    0.7600981101
O173       O    0.7208181988    0.3683216406    0.7404169737
H206       H    0.8035891000    0.2009086514    0.7800473915
O177       O    0.7778000268    0.2043718037    0.7754327108
H198       H    0.8367616320    0.2419451312    0.7488254716
O181       O    0.8169673853    0.2578667878    0.7514142743
H199       H    0.5933961345    0.2859172882    0.6742303643
O189       O    0.6125771623    0.2692888921    0.6713963711
H203       H    0.6595502476    0.3387955264    0.6450743300
O190       O    0.6461123321    0.3156007082    0.6465766234
O156       O    0.6912524079    0.2945705125    0.7445540265
O159       O    0.7172820630    0.2139091366    0.7332100028
O166       O    0.6869837363    0.2592167517    0.6648361631
O168       O    0.7649772326    0.2824159777    0.7043338050
O150       O    0.6379566608    0.2617483736    0.7822672563
O155       O    0.6176565878    0.2921031273    0.7364631372
C170       C    0.6165803830    0.2787740657    0.7654870887
O151       O    0.7041980238    0.2814449994    0.8158129817
O153       O    0.7361495463    0.3273467626    0.7964708728
C172       C    0.7208236924    0.3097809439    0.8182796705
O152       O    0.6572130291    0.1695495790    0.7192250647
O154       O    0.6600661008    0.1932349741    0.7726348856
C171       C    0.6513792307    0.1709633088    0.7503229906
O174       O    0.7730346908    0.3555066102    0.7042419340
O175       O    0.7701816191    0.3318212151    0.6508321132
C176       C    0.7788679978    0.3540908589    0.6731390981
O179       O    0.7922910591    0.2633078156    0.6411997424
O183       O    0.8125911322    0.2329530619    0.6870038615
C184       C    0.8136673369    0.2462821236    0.6579799101
O187       O    0.7260496961    0.2436111899    0.6076540170
O188       O    0.6940981736    0.1977094266    0.6269961260
C191       C    0.7094240275    0.2152752453    0.6051873283
N262       N    0.4843605156    0.9352903746    0.1707662186
C263       C    0.5105760806    0.9110523177    0.1693863558
C264       C    0.4522854146    0.9152589594    0.1694922321
C265       C    0.4945472244    0.8755472596    0.1663649408
C266       C    0.4586128278    0.8781450857    0.1663906919
N267       N    0.5439242397    0.9843294240    0.1702083482
C268       C    0.5623773578    0.9535737636    0.1708689912
C269       C    0.5698484119    1.0119008046    0.1701874988
C270       C    0.6048646326    0.9980883415    0.1708472103
C271       C    0.6002835984    0.9621655003    0.1717957961
N272       N    0.4978292635    1.0409814664    0.1691756979
C273       C    0.5298340451    1.0610502689    0.1688747129
C274       C    0.4715942843    1.0652806942    0.1700509313
C275       C    0.5234315709    1.0983124764    0.1698634824
C276       C    0.4875265690    1.1009196497    0.1706388533
N277       N    0.4384021117    0.9919701804    0.1713744603
C278       C    0.4125308240    0.9643942402    0.1719324840
C279       C    0.4200358471    1.0227260872    0.1723043897
C280       C    0.3822635336    1.0141419686    0.1735152283
C281       C    0.3776801695    0.9782038771    0.1737300852
C282       C    0.5474819905    0.9187615225    0.1701696533
C283       C    0.4181453962    0.9281053882    0.1706298821
C284       C    0.4348328554    1.0575396723    0.1715517127
C285       C    0.5640757576    1.0481820478    0.1692357593
H286       H    0.5093273042    0.8519933443    0.1642332797
H287       H    0.4378600240    0.8571510532    0.1642905838
H288       H    0.6295054683    1.0142335697    0.1707565653
H289       H    0.6204035755    0.9428117895    0.1727470526
H290       H    0.5441387765    1.1193803443    0.1703322608
H291       H    0.4727248068    1.1245662381    0.1718695828
H292       H    0.3622265910    1.0335074734    0.1741937195
H293       H    0.3531251856    0.9620481426    0.1747650889
Co294     Co    0.4911331641    0.9881486688    0.1703820140
D361       D    0.7267253437    0.6304003374    0.2950676043
D362       D    0.7597522719    0.6388558952    0.2799571156
D363       D    0.7435917563    0.6650002963    0.2587212016
D364       D    0.7105648281    0.6565447387    0.2738316903
D365       D    0.7475984874    0.6474026573    0.3009906709
D366       D    0.7314379718    0.6735470585    0.2797547569
D367       D    0.7227186126    0.6479979765    0.2527981350
D368       D    0.7388791280    0.6218535754    0.2740340490
Zr295     Zr    0.7383549765    0.6510660199    0.2801673356
D369       D    0.6804645026    0.7788902110    0.2492482331
D370       D    0.7125083366    0.7871560287    0.2322750926
D371       D    0.7210899758    0.7511966284    0.2345313069
D372       D    0.6890461417    0.7429308108    0.2515044474
D373       D    0.6874377228    0.7796179933    0.2240825414
D374       D    0.6960193621    0.7436585931    0.2263387558
D375       D    0.7141167554    0.7504688462    0.2596969986
D376       D    0.7055351162    0.7864282465    0.2574407843
Zr307     Zr    0.7040339167    0.7722317498    0.2470820598
D377       D    0.6982592812    0.6647240958    0.1981900109
D378       D    0.6708661441    0.6754383895    0.2193859422
D379       D    0.6887181724    0.7092678184    0.2238689470
D380       D    0.7161113095    0.6985535245    0.2026730158
D381       D    0.6750905350    0.6761754083    0.1934861340
D382       D    0.6929425632    0.7100048371    0.1979691390
D383       D    0.7118869186    0.6978165058    0.2285728240
D384       D    0.6940348904    0.6639870771    0.2240898190
Zr308     Zr    0.6988349401    0.6894550361    0.2041674538
D385       D    0.7306885668    0.7322405617    0.3468857534
D386       D    0.7366904625    0.7122330327    0.3163293337
D387       D    0.7487900979    0.7435638047    0.2991627532
D388       D    0.7427882021    0.7635713337    0.3297191729
D389       D    0.7513356442    0.7196940002    0.3382702025
D390       D    0.7634352795    0.7510247723    0.3211036220
D391       D    0.7281430204    0.7561103661    0.3077783041
D392       D    0.7160433851    0.7247795941    0.3249448845
Zr309     Zr    0.7435544996    0.7338474990    0.3230842885
D394       D    0.7742914190    0.7085891466    0.2560785412
D395       D    0.7571253967    0.7283411230    0.2289919070
D396       D    0.7876412821    0.7520174056    0.2284247629
D397       D    0.7966570317    0.7097376337    0.2428340378
D398       D    0.7794910094    0.7294896100    0.2157474036
D399       D    0.7652756694    0.7508689186    0.2416692663
D400       D    0.7824416916    0.7311169422    0.2687559005
D393       D    0.8048073043    0.7322654292    0.2555113971
Zr310     Zr    0.7812201671    0.7247852768    0.2408078976
D401       D    0.6754305589    0.6839196470    0.2723613679
D402       D    0.6778666336    0.7154323403    0.2928358762
D403       D    0.6490439335    0.7022446228    0.3124915048
D404       D    0.6466078588    0.6707319295    0.2920169965
D405       D    0.6888067722    0.6919168697    0.2948501643
D406       D    0.6599840721    0.6787291521    0.3145057929
D407       D    0.6356677201    0.6942474002    0.2900027084
D408       D    0.6644904202    0.7074351177    0.2703470798
Zr325     Zr    0.6611692726    0.6985172583    0.2864438448
H352       H    0.7278086161    0.5882702266    0.3050016893
H360       H    0.6904424482    0.6011206174    0.2916219916
O296       O    0.7121298387    0.6084132669    0.3065106166
H343       H    0.8217798713    0.7234089177    0.1882091398
H357       H    0.7946802429    0.6906159755    0.1843039369
O312       O    0.7959027307    0.7165848317    0.1881187979
H344       H    0.6475935692    0.6646388558    0.1619259705
H359       H    0.6410371805    0.6484041929    0.1991379356
O327       O    0.6462099404    0.6712595999    0.1871753576
H349       H    0.6174233063    0.7009703461    0.3366896776
H358       H    0.6480020182    0.7297129554    0.3454077262
O329       O    0.6438208032    0.7044747514    0.3386359674
H351       H    0.7544439432    0.8201244141    0.2382002682
H355       H    0.7375864486    0.8098419964    0.2007039284
O332       O    0.7311493315    0.8168896188    0.2246458756
H347       H    0.7935911956    0.7622869146    0.3646621696
H354       H    0.8119307227    0.7384423441    0.3381116693
O333       O    0.7946239980    0.7571844213    0.3390224050
H339       H    0.7909007283    0.6950964520    0.3007233997
O304       O    0.7677770414    0.6998323488    0.2885153690
H342       H    0.6752151284    0.6449506428    0.2501716476
O305       O    0.6906773410    0.6667693260    0.2542189896
H348       H    0.7303891604    0.7462919745    0.3875026213
O311       O    0.7139018346    0.7350290955    0.3688629092
H340       H    0.7364571492    0.7475157683    0.1948800884
O314       O    0.7307881192    0.7357612441    0.2173859555
H341       H    0.6829553302    0.7594438928    0.3102121026
O316       O    0.6955416520    0.7442416708    0.2943838225
H356       H    0.7418783557    0.6685525317    0.1582092325
O320       O    0.7269629833    0.6893403436    0.1571641273
H353       H    0.6212372654    0.6456249555    0.3097507135
O324       O    0.6475911203    0.6487399643    0.3096225746
H345       H    0.5953895098    0.6813825978    0.2674655099
O328       O    0.6168891792    0.6783932085    0.2539468155
H346       H    0.8474667297    0.7424849161    0.2570623431
O336       O    0.8265035025    0.7456390593    0.2713623040
H350       H    0.7901953931    0.7790216173    0.1991764192
O337       O    0.8005499705    0.7753146826    0.2234534924
O303       O    0.7468477877    0.6790608643    0.2328679198
O306       O    0.7116013205    0.6875412910    0.3098657869
O313       O    0.7517173729    0.7565327285    0.2730334046
O315       O    0.6746123983    0.7234701863    0.2387363734
O297       O    0.7933097493    0.6359493592    0.2690118812
O302       O    0.8201871258    0.6821671758    0.2443351428
C317       C    0.8177477287    0.6522983523    0.2557825066
O298       O    0.7278221821    0.6078686934    0.2398895861
O300       O    0.7030437784    0.6319359514    0.1922309238
C319       C    0.7146918466    0.6081066717    0.2099426046
O299       O    0.7666272472    0.6950549503    0.3613217215
O301       O    0.7633713892    0.6431494001    0.3344133203
C318       C    0.7706299989    0.6636355393    0.3586958577
O321       O    0.6757621925    0.7282475848    0.1659300209
O322       O    0.6790180505    0.7801531350    0.1928384220
C323       C    0.6717599873    0.7596717613    0.1685582317
O326       O    0.6490796904    0.7873531760    0.2582398612
O330       O    0.6222023139    0.7411353594    0.2829165996
C331       C    0.6246417110    0.7710041828    0.2714692358
O334       O    0.7145672576    0.8154338417    0.2873621563
O335       O    0.7393456613    0.7913665837    0.3350208186
C338       C    0.7276975931    0.8151958634    0.3173091378
N409       N    1.0440033464    0.6596428986    0.4949172471
C410       C    1.0622980176    0.6583377457    0.4641790886
C411       C    1.0697560418    0.6578129878    0.5224368195
C412       C    1.0997940806    0.6548003035    0.4726952494
C413       C    1.1043839678    0.6544373367    0.5086075342
N414       N    0.9844050710    0.6602286280    0.4459679717
C415       C    1.0107550757    0.6608134616    0.4217189832
C416       C    0.9524197827    0.6607637587    0.4259178886
C417       C    0.9589899374    0.6616965863    0.3887258786
C418       C    0.9949581757    0.6622562146    0.3861561920
N419       N    0.9382811813    0.6591964669    0.5025694849
C420       C    0.9123739811    0.6594511858    0.4750183750
C421       C    0.9198884860    0.6599974159    0.5333042558
C422       C    0.8774393685    0.6607149110    0.4888059070
C423       C    0.8820771699    0.6611018760    0.5247426153
N424       N    0.9979629216    0.6602532108    0.5515025341
C425       C    1.0299872051    0.6602557385    0.5715365376
C426       C    0.9717288073    0.6612597100    0.5757753343
C427       C    0.9876709547    0.6619558879    0.6113546350
C428       C    1.0235929986    0.6617817287    0.6087337849
C429       C    1.0475466240    0.6596172569    0.4294161304
C430       C    1.0641037229    0.6586782809    0.5586971365
C431       C    0.9348337137    0.6610030013    0.5680755463
C432       C    0.9181530102    0.6600853275    0.4387565538
H433       H    1.1196245280    0.6526184305    0.4533049454
H434       H    1.1287622106    0.6519025577    0.5247268935
H435       H    0.9383796786    0.6620402573    0.3676617508
H436       H    1.0098992663    0.6632574740    0.3625538571
H437       H    0.8528615072    0.6616187736    0.4726340393
H438       H    0.8620852502    0.6623835716    0.5441107982
H439       H    0.9728385498    0.6625851946    0.6349895328
H440       H    1.0442756467    0.6623831621    0.6297761620
Co441     Co    0.9911567263    0.6598312355    0.4987364528
D508       D    0.2604468773    0.6250811846    0.6869275013
D509       D    0.2302480872    0.6321529203    0.7059962419
D510       D    0.2507342173    0.6587010701    0.7257288201
D511       D    0.2809330074    0.6516293344    0.7066600794
D512       D    0.2404403693    0.6413936722    0.6836853417
D513       D    0.2609264994    0.6679418221    0.7034179199
D514       D    0.2707407253    0.6423885825    0.7289709796
D515       D    0.2502545953    0.6158404327    0.7092384014
Zr442     Zr    0.2523072021    0.6451780938    0.7034781224
D516       D    0.3230175000    0.7749879218    0.7295372962
D517       D    0.2939946139    0.7818858807    0.7503506990
D518       D    0.2824723986    0.7455841981    0.7485627979
D519       D    0.3114952848    0.7386862394    0.7277493951
D520       D    0.3191465235    0.7751816067    0.7555128451
D521       D    0.3076243082    0.7388799243    0.7537249439
D522       D    0.2863433752    0.7453905133    0.7225872490
D523       D    0.2978655905    0.7816921958    0.7243751501
Zr454     Zr    0.2994714454    0.7674194655    0.7343449661
D524       D    0.3026269274    0.6594497151    0.7809561539
D525       D    0.3280240764    0.6714300020    0.7567428323
D526       D    0.3124718854    0.7046885321    0.7548370706
D527       D    0.2870747364    0.6927082450    0.7790503922
D528       D    0.3269560828    0.6717272400    0.7831326431
D529       D    0.3114038919    0.7049857700    0.7812268814
D530       D    0.2881427299    0.6924110071    0.7526605813
D531       D    0.3036949209    0.6591524771    0.7545663430
Zr455     Zr    0.3032650574    0.6842573027    0.7754134030
D532       D    0.2582988123    0.7274754880    0.6370973061
D533       D    0.2544202304    0.7068836426    0.6680421191
D534       D    0.2469068685    0.7376174201    0.6870700330
D535       D    0.2507854504    0.7582092655    0.6561252199
D536       D    0.2379443546    0.7140493662    0.6479246235
D537       D    0.2304309927    0.7447831437    0.6669525374
D538       D    0.2672613263    0.7510435419    0.6762427155
D539       D    0.2747746882    0.7203097645    0.6572148017
Zr456     Zr    0.2485131420    0.7283450337    0.6624074735
D541       D    0.2240812469    0.7011755960    0.7325834008
D542       D    0.2457557082    0.7212962783    0.7579527051
D543       D    0.2175017062    0.7438615031    0.7624175170
D544       D    0.2036317351    0.7013479595    0.7484394462
D545       D    0.2253061964    0.7214686416    0.7738087507
D546       D    0.2379512180    0.7436891398    0.7465614715
D547       D    0.2162767568    0.7235684575    0.7211921671
D540       D    0.1958272450    0.7237408208    0.7370482126
Zr457     Zr    0.2202843791    0.7169680124    0.7488916237
D548       D    0.3179336357    0.6803323516    0.7044481016
D549       D    0.3155510572    0.7120200567    0.6847314795
D550       D    0.3406954571    0.7001031361    0.6615387790
D551       D    0.3430780356    0.6684154310    0.6812554010
D552       D    0.3026884328    0.6880882794    0.6836432861
D553       D    0.3278328327    0.6761713588    0.6604505856
D554       D    0.3559406599    0.6923472083    0.6823435944
D555       D    0.3307962600    0.7042641289    0.7055362949
Zr472     Zr    0.3314938203    0.6956343239    0.6889292528
H499       H    0.2549525784    0.5829638454    0.6765023090
H507       H    0.2944381888    0.5970759101    0.6857202632
O443       O    0.2718217342    0.6037337220    0.6734681340
H490       H    0.1862965578    0.7135040853    0.8061619677
H504       H    0.2109974657    0.6816340246    0.8064301360
O459       O    0.2113467252    0.7076334111    0.8031424408
H491       H    0.3569470507    0.6608537394    0.8113103236
H506       H    0.3577902371    0.6452490288    0.7731137666
O474       O    0.3558533272    0.6678110983    0.7860095471
H496       H    0.3689898328    0.7002692734    0.6336561089
H505       H    0.3399721398    0.7280068038    0.6289221385
O476       O    0.3429506274    0.7028168243    0.6348320762
H498       H    0.2544114799    0.8134013788    0.7497912926
H502       H    0.2746862709    0.8033225866    0.7851580926
O479       O    0.2787722937    0.8108812196    0.7605827996
H494       H    0.1963793897    0.7554142034    0.6270872279
H501       H    0.1795432098    0.7305647633    0.6554060517
O480       O    0.1979829719    0.7499858885    0.6527598087
H486       H    0.2013735041    0.6875353654    0.6896917112
O451       O    0.2260227093    0.6930047955    0.6992749861
H489       H    0.3177481000    0.6410770418    0.7260273277
O452       O    0.3036804852    0.6623931722    0.7241018816
H495       H    0.2548989317    0.7420011617    0.5966719663
O458       O    0.2725125531    0.7311332220    0.6132195293
H487       H    0.2716727467    0.7408923637    0.7899281341
O461       O    0.2737164406    0.7295797095    0.7666001014
H488       H    0.3118779536    0.7560904554    0.6686045983
O463       O    0.3001314389    0.7402263251    0.6856647386
H503       H    0.2645331987    0.6612216609    0.8260469833
O467       O    0.2809985642    0.6825807844    0.8256639344
H500       H    0.3641171921    0.6444139574    0.6602092480
O471       O    0.3383352140    0.6465505174    0.6634478530
H492       H    0.3973947990    0.6807183106    0.6999966596
O475       O    0.3775134594    0.6767765720    0.7159650086
H493       H    0.1542864875    0.7324025580    0.7406094522
O483       O    0.1735585817    0.7364978473    0.7239250134
H497       H    0.2205073198    0.7704861517    0.7923476978
O484       O    0.2071328282    0.7666545372    0.7692313510
O450       O    0.2516467605    0.6723760113    0.7521561379
O453       O    0.2780617588    0.6830226269    0.6712207751
O460       O    0.2480923895    0.7502084937    0.7137189496
O462       O    0.3257554901    0.7195975409    0.7385458904
O444       O    0.1981570571    0.6278733969    0.7207956985
O449       O    0.1780773430    0.6728814972    0.7492683789
C464       C    0.1768325284    0.6431893480    0.7371019231
O445       O    0.2641178362    0.6018750189    0.7418747703
O447       O    0.2960683481    0.6263749258    0.7869849620
C466       C    0.2806342334    0.6022743802    0.7702844043
O446       O    0.2182192816    0.6890607773    0.6262984622
O448       O    0.2205937822    0.6369133889    0.6520497013
C465       C    0.2121464382    0.6574221161    0.6289248984
O468       O    0.3335589178    0.7235415591    0.8115224143
O469       O    0.3311844172    0.7756889475    0.7857711752
C470       C    0.3396313131    0.7551849974    0.8088937660
O473       O    0.3536211423    0.7847289395    0.7170251780
O477       O    0.3737008564    0.7397208391    0.6885524976
C478       C    0.3749456710    0.7694129883    0.7007189534
O481       O    0.2876603632    0.8107273175    0.6959461062
O482       O    0.2557098513    0.7862274105    0.6508359145
C485       C    0.2711439660    0.8103279561    0.6675364722
N556       N    0.5048463482    0.9370224477    0.7611355255
C557       C    0.5360256905    0.9192943318    0.7597758289
C558       C    0.4774936634    0.9108246615    0.7599584880
C559       C    0.5278938350    0.8816385636    0.7568651900
C560       C    0.4918095514    0.8764220337    0.7569382606
N561       N    0.5530583647    0.9971170913    0.7603683108
C562       C    0.5779873472    0.9714171012    0.7610768899
C563       C    0.5726883353    1.0292761662    0.7602410898
C564       C    0.6103052328    1.0234743348    0.7608824262
C565       C    0.6135902615    0.9878392339    0.7619260652
N566       N    0.4951750573    1.0418539484    0.7592654640
C567       C    0.5224459806    1.0680870902    0.7588674018
C568       C    0.4639619030    1.0596415001    0.7601203647
C569       C    0.5080181125    1.1026359665    0.7597744171
C570       C    0.4719628152    1.0974279075    0.7605971079
N571       N    0.4470962973    0.9818004104    0.7616734457
C572       C    0.4275209988    0.9496433868    0.7623378216
C573       C    0.4222572777    1.0075047469    0.7625554516
C574       C    0.3867906864    0.9910991788    0.7638438930
C575       C    0.3900748064    0.9554555844    0.7641537781
C576       C    0.5708313363    0.9346517625    0.7604851435
C577       C    0.4409576036    0.9158667315    0.7611157351
C578       C    0.4293119700    1.0442635326    0.7616951963
C579       C    0.5590912237    1.0630321434    0.7592088871
H580       H    0.5476190018    0.8621198462    0.7547690352
H581       H    0.4758555771    0.8517364187    0.7549204719
H582       H    0.6311508843    1.0443395201    0.7607153505
H583       H    0.6376884983    0.9734901834    0.7628948228
H584       H    0.5239066886    1.1273979132    0.7601606164
H585       H    0.4521937069    1.1170395786    0.7617920552
H586       H    0.3627762295    1.0054625327    0.7645048764
H587       H    0.3693187731    0.9345900740    0.7652651948
Co588     Co    0.5000468401    0.9894549550    0.7606114989
N589       N    0.2439673937    0.4850591091    1.0275323419
C590       C    0.2428988107    0.4582336974    1.0524547915
C591       C    0.2426702166    0.5162758347    1.0465459064
C592       C    0.2400428432    0.4729091753    1.0873145957
C593       C    0.2398620724    0.5086858561    1.0836653814
N594       N    0.2433401426    0.4270473318    0.9802418118
C595       C    0.2443368301    0.4080090108    1.0115540270
C596       C    0.2432431460    0.4019822727    0.9534464718
C597       C    0.2441954841    0.3669141664    0.9683115338
C598       C    0.2454020039    0.3706676366    1.0041266968
N599       N    0.2416269382    0.4741655023    0.9222188480
C600       C    0.2413366837    0.4428354296    0.9030857319
C601       C    0.2421865396    0.5009527456    0.8972090225
C602       C    0.2420146922    0.4502566946    0.8657083269
C603       C    0.2425892430    0.4860920597    0.8620887688
N604       N    0.2439078818    0.5322341494    0.9695691152
C605       C    0.2445463901    0.5573093566    0.9963978914
C606       C    0.2445141419    0.5513721647    0.9383401192
C607       C    0.2456032769    0.5888306150    0.9458725136
C608       C    0.2460706712    0.5925002154    0.9816655223
C609       C    0.2438209468    0.4218472206    1.0458728154
C610       C    0.2435406576    0.5506589756    1.0327634431
C611       C    0.2435666020    0.5374619362    0.9039432336
C612       C    0.2419768710    0.4085259344    0.9169692013
H613       H    0.2381521319    0.4573765785    1.1111795694
H614       H    0.2377988137    0.5285306754    1.1039311362
H615       H    0.2441088523    0.3428268685    0.9528942946
H616       H    0.2466129793    0.3502956582    1.0241074852
H617       H    0.2424335886    0.4302682955    0.8452844525
H618       H    0.2435714466    0.5015431981    0.8380847083
H619       H    0.2460346100    0.6093109561    0.9259652845
H620       H    0.2471092688    0.6166123656    0.9971438226
Co621     Co    0.2432114051    0.4796226622    0.9748848888
N622       N    0.7437629493    0.4696847412    0.9376169615
C623       C    0.7427826326    0.5009127196    0.9185218343
C624       C    0.7418445717    0.4428064796    0.9125228452
C625       C    0.7393536828    0.4933074063    0.8810872247
C626       C    0.7387356306    0.4574862713    0.8773920753
N627       N    0.7444148412    0.5169535485    0.9956361605
C628       C    0.7453300060    0.5420200551    0.9689260712
C629       C    0.7449390326    0.5361087539    1.0269565922
C630       C    0.7461997371    0.5735661295    1.0196034845
C631       C    0.7469732524    0.5772186197    0.9838854710
N632       N    0.7426952631    0.4589108836    1.0427462055
C633       C    0.7430271079    0.4857358076    1.0678088627
C634       C    0.7431674371    0.4276576993    1.0618796636
C635       C    0.7440083873    0.4709810603    1.1029963123
C636       C    0.7441454580    0.4351751531    1.0993418434
N637       N    0.7436976379    0.4117445650    0.9848356719
C638       C    0.7437151101    0.3926340258    0.9535389478
C639       C    0.7443851123    0.3867388211    1.0116172585
C640       C    0.7448960580    0.3516371269    0.9967640177
C641       C    0.7449309204    0.3553020217    0.9610048286
C642       C    0.7442608847    0.5353331661    0.9324440673
C643       C    0.7424063166    0.4064000444    0.9191511504
C644       C    0.7439908619    0.3933511861    1.0480322168
C645       C    0.7439757286    0.5222239660    1.0612299315
H646       H    0.7374112852    0.5131799489    0.8606505805
H647       H    0.7361881919    0.4419398583    0.8532931075
H648       H    0.7465991451    0.5940591566    1.0395798834
H649       H    0.7482423576    0.6013254355    0.9685700947
H650       H    0.7449131108    0.4864909574    1.1271015802
H651       H    0.7451808416    0.4152740894    1.1198330756
H652       H    0.7452689880    0.3275841075    1.0121628518
H653       H    0.7454836273    0.3348811035    0.9410664512
Co654     Co    0.7436436018    0.4643261535    0.9902151464
D721       D    0.7706366295    0.8397541562    0.7991481509
D722       D    0.7381442468    0.8315206834    0.7793372599
D723       D    0.7548253612    0.8053676531    0.7603378900
D724       D    0.7873177438    0.8136011258    0.7801487811
D725       D    0.7495439712    0.8228310671    0.8020147737
D726       D    0.7662250856    0.7966780366    0.7830154038
D727       D    0.7759180194    0.8222907422    0.7574712672
D728       D    0.7592369052    0.8484437726    0.7764706371
Zr655     Zr    0.7594206345    0.8191982451    0.7825391590
D729       D    0.8175488591    0.6911647240    0.7593809120
D730       D    0.7860982872    0.6831230615    0.7378523728
D731       D    0.7776385296    0.7191265310    0.7390363838
D732       D    0.8090891016    0.7271681933    0.7605649231
D733       D    0.8114056072    0.6905667429    0.7332782063
D734       D    0.8029458496    0.7265702122    0.7344622174
D735       D    0.7837817816    0.7197245121    0.7651390895
D736       D    0.7922415393    0.6837210426    0.7639550785
Zr667     Zr    0.7941426851    0.6979524648    0.7538947510
D737       D    0.8020029928    0.8056418119    0.7063980914
D738       D    0.8285869122    0.7947062705    0.7313966209
D739       D    0.8104733631    0.7609419365    0.7331842861
D740       D    0.7838894437    0.7718774781    0.7081857567
D741       D    0.8252091095    0.7940878797    0.7049525708
D742       D    0.8070955605    0.7603235458    0.7067402362
D743       D    0.7872672463    0.7724958689    0.7346298067
D744       D    0.8053807954    0.8062602027    0.7328421414
Zr668     Zr    0.8011163401    0.7808850780    0.7121738440
D745       D    0.7645154586    0.7377134817    0.8498461464
D746       D    0.7596152944    0.7578713869    0.8185922244
D747       D    0.7479527099    0.7266586041    0.7996096082
D748       D    0.7528528741    0.7065006989    0.8308635302
D749       D    0.7442613040    0.7504002499    0.8383665645
D750       D    0.7325987195    0.7191874671    0.8193839483
D751       D    0.7682068645    0.7139718359    0.8110891901
D752       D    0.7798694490    0.7451846187    0.8300718063
Zr669     Zr    0.7524463355    0.7362608591    0.8242623095
D754       D    0.7240814593    0.7619333516    0.7531465829
D755       D    0.7419857549    0.7421912638    0.7284804912
D756       D    0.7114535665    0.7186658102    0.7234713440
D757       D    0.7021974134    0.7609477390    0.7367455822
D758       D    0.7201017090    0.7412056513    0.7120794905
D759       D    0.7333376124    0.7196514228    0.7398723447
D760       D    0.7154333168    0.7393935106    0.7645384363
D753       D    0.6935492709    0.7384078980    0.7481374356
Zr670     Zr    0.7175876421    0.7458256866    0.7368560764
D761       D    0.8222771132    0.7860467806    0.7835636044
D762       D    0.8190325630    0.7544614937    0.8035090954
D763       D    0.8472070761    0.7674325333    0.8272766829
D764       D    0.8504516263    0.7990178202    0.8073311919
D765       D    0.8081684737    0.7780307614    0.8040628587
D766       D    0.8363429868    0.7910018010    0.8278304462
D767       D    0.8613157155    0.7754485525    0.8067774286
D768       D    0.8331412025    0.7624775129    0.7830098411
Zr685     Zr    0.8359750335    0.7713202506    0.7995800771
H712       H    0.7694366838    0.8818630127    0.8090855778
H720       H    0.8070778237    0.8688703216    0.8009983849
O656       O    0.7849291797    0.8616297587    0.8127355460
H703       H    0.6788438968    0.7476057710    0.6786140571
H717       H    0.7061573858    0.7802843151    0.6787141921
O672       O    0.7046897032    0.7543007648    0.6822350348
H704       H    0.8537128422    0.8056066686    0.6774272603
H719       H    0.8591245254    0.8216722468    0.7155554650
O687       O    0.8542429701    0.7988822864    0.7027866841
H709       H    0.8779678503    0.7684558663    0.8559233584
H718       H    0.8470478080    0.7398282083    0.8601472606
O689       O    0.8515588489    0.7650770472    0.8540942138
H711       H    0.7439209661    0.6503366256    0.7376558737
H715       H    0.7619991074    0.6606772118    0.7026889444
O692       O    0.7676099423    0.6535051484    0.7274611527
H707       H    0.7010554822    0.7079115104    0.8585027112
H714       H    0.6837382890    0.7319548886    0.8295064341
O693       O    0.7008806267    0.7131169494    0.8327972265
H699       H    0.7061334572    0.7753457263    0.7953826378
O664       O    0.7295700361    0.7705373516    0.7864726965
H702       H    0.8233981681    0.8251079625    0.7616228547
O665       O    0.8077400594    0.8033469268    0.7633673476
H708       H    0.7634305515    0.7235042599    0.8903513677
O671       O    0.7805332164    0.7347565149    0.8741489325
H700       H    0.7636135997    0.7230353226    0.6973062632
O674       O    0.7685951950    0.7346794369    0.7206169756
H701       H    0.8131826061    0.7103992944    0.8199325133
O676       O    0.8012147813    0.7257286640    0.8024151892
H716       H    0.7597739623    0.8021838421    0.6602872402
O680       O    0.7745846872    0.7813191281    0.6612777085
H713       H    0.8753025098    0.8239358435    0.8287412017
O684       O    0.8490061220    0.8209540994    0.8248503097
H705       H    0.9022816044    0.7881972143    0.7900784332
O688       O    0.8812900210    0.7913471631    0.7735448113
H706       H    0.6509010237    0.7283962115    0.7435713005
O696       O    0.6713314494    0.7250812479    0.7608073474
H710       H    0.7097240232    0.6917777358    0.6938116415
O697       O    0.6986274763    0.6954467832    0.7165750973
O663       O    0.7523478943    0.7914172731    0.7340209643
O666       O    0.7849674805    0.7824665002    0.8158191779
O673       O    0.7458173368    0.7137995154    0.7730687078
O675       O    0.8239926395    0.7466085855    0.7499634570
O657       O    0.7050423147    0.8346391917    0.7636551627
O662       O    0.6788120960    0.7886387545    0.7350133848
C677       C    0.6810177568    0.8184596894    0.7469092774
O658       O    0.7714387087    0.8625045488    0.7440383641
O660       O    0.7975814897    0.8384848776    0.6999125083
C679       C    0.7855041988    0.8623125869    0.7160279330
O659       O    0.7283807915    0.7750363178    0.8592945180
O661       O    0.7327494353    0.8270396415    0.8331340328
C678       C    0.7246244326    0.8064938077    0.8562398055
O681       O    0.8251818841    0.7421096194    0.6771416355
O682       O    0.8208132402    0.6901062957    0.7033021207
C683       C    0.8289375989    0.7106473568    0.6801985914
O686       O    0.8485203608    0.6825067454    0.7727809908
O690       O    0.8747505795    0.7285071827    0.8014227687
C691       C    0.8725449187    0.6986862478    0.7895268761
O694       O    0.7821239669    0.6546413884    0.7923977894
O695       O    0.7559811858    0.6786610595    0.8365236452
C698       C    0.7680584768    0.6548333503    0.8204082205
N769       N    0.7520713520   -0.0005965100    0.4418282609
C770       C    0.7509051515    0.0261043942    0.4167861312
C771       C    0.7507856585   -0.0319578352    0.4226719615
C772       C    0.7479994377    0.0111058210    0.3816118217
C773       C    0.7478859299   -0.0246877496    0.3852424881
N774       N    0.7514481089    0.0573412526    0.4890548680
C775       C    0.7523465949    0.0764888867    0.4578471132
C776       C    0.7513663716    0.0823943111    0.5158422596
C777       C    0.7522288025    0.1175660204    0.5010784192
C778       C    0.7533654657    0.1139474970    0.4653904746
N779       N    0.7499365726    0.0100367420    0.5468990422
C780       C    0.7496348658    0.0413320087    0.5660021729
C781       C    0.7505939027   -0.0166835149    0.5719731738
C782       C    0.7504046802    0.0339898999    0.6034578184
C783       C    0.7510465449   -0.0017769896    0.6071410143
N784       N    0.7522135116   -0.0477709989    0.4997926340
C785       C    0.7528367182   -0.0727730081    0.4730307256
C786       C    0.7529179970   -0.0668371677    0.5310915821
C787       C    0.7540534530   -0.1041693828    0.5236775616
C788       C    0.7544508822   -0.1077875741    0.4879313464
C789       C    0.7517807731    0.0625919901    0.4234684953
C790       C    0.7517426057   -0.0662386985    0.4365514052
C791       C    0.7520204100   -0.0530336415    0.5653890667
C792       C    0.7501884874    0.0757099492    0.5521860877
H793       H    0.7460321231    0.0264221117    0.3575380537
H794       H    0.7458125606   -0.0447648756    0.3647502721
H795       H    0.7521348722    0.1416420223    0.5164875420
H796       H    0.7545001111    0.1344534371    0.4455387472
H797       H    0.7508337488    0.0540247652    0.6239292428
H798       H    0.7521054923   -0.0171144961    0.6312550270
H799       H    0.7545611755   -0.1245980763    0.5436344264
H800       H    0.7554967105   -0.1317808442    0.4725647413
Co801     Co    0.7514182079    0.0047565745    0.4943994311
D868       D    0.7911951353    0.2403788111    0.2981091422
D869       D    0.8213855418    0.2212773377    0.2910694971
D870       D    0.8009062824    0.2015308282    0.2645356430
D871       D    0.7707158759    0.2206323017    0.2715752880
D872       D    0.8112174768    0.2436049171    0.2818187642
D873       D    0.7907382174    0.2238584077    0.2552849100
D874       D    0.7808839409    0.1983047223    0.2808260211
D875       D    0.8013632002    0.2180512317    0.3073598751
Zr802     Zr    0.7993388858    0.2238035288    0.2780384345
D876       D    0.7287149862    0.1977079108    0.1482852471
D877       D    0.7577280370    0.1768613134    0.1414193119
D878       D    0.7692219468    0.1786602092    0.1777025012
D879       D    0.7402088959    0.1995068066    0.1845684362
D880       D    0.7325666958    0.1717124806    0.1481057195
D881       D    0.7440606056    0.1735113765    0.1843889087
D882       D    0.7653702371    0.2046556393    0.1778820287
D883       D    0.7538763273    0.2028567435    0.1415988395
Zr814     Zr    0.7522513356    0.1928873704    0.1558652720
D884       D    0.7489726769    0.1462941730    0.2637800624
D885       D    0.7236033563    0.1705326213    0.2517813927
D886       D    0.7391842218    0.1724163468    0.2185544026
D887       D    0.7645535424    0.1481778986    0.2305530725
D888       D    0.7246518480    0.1441241446    0.2514968309
D889       D    0.7402327134    0.1460078702    0.2182698409
D890       D    0.7635050507    0.1745863754    0.2308376343
D891       D    0.7479241852    0.1727026498    0.2640646242
Zr815     Zr    0.7483589772    0.1518300272    0.2389865702
D892       D    0.7934642235    0.2901962357    0.1957639194
D893       D    0.7973028240    0.2592373889    0.2163579309
D894       D    0.8048271027    0.2401787501    0.1856583524
D895       D    0.8009885023    0.2711375969    0.1650643409
D896       D    0.8137996706    0.2793563126    0.2091983183
D897       D    0.8213239493    0.2602976738    0.1784987398
D898       D    0.7844916557    0.2510186732    0.1722239535
D899       D    0.7769673769    0.2700773120    0.2029235320
Zr816     Zr    0.8032316978    0.2648630832    0.1949123618
D901       D    0.8275889455    0.1946380501    0.2221097635
D902       D    0.8059118770    0.1692544900    0.2020007658
D903       D    0.8341810862    0.1647610663    0.1794704897
D904       D    0.8480268029    0.1787598878    0.2219572898
D905       D    0.8263497344    0.1533763276    0.2018482923
D906       D    0.8137432288    0.1806392287    0.1796229633
D907       D    0.8354202973    0.2060227889    0.1997319609
D900       D    0.8558581547    0.1901446265    0.1995794874
Zr817     Zr    0.8313865354    0.1783096332    0.2063378034
D908       D    0.7337402454    0.2228534057    0.2428679831
D909       D    0.7361634973    0.2425680513    0.2111946090
D910       D    0.7110266227    0.2657956583    0.2230774114
D911       D    0.7086033708    0.2460810127    0.2547507855
D912       D    0.7490074117    0.2436605320    0.2351174996
D913       D    0.7238705371    0.2668881390    0.2470003020
D914       D    0.6957594564    0.2449885320    0.2308278949
D915       D    0.7208963310    0.2217609250    0.2189450925
Zr832     Zr    0.7202041397    0.2383834771    0.2275611286
H859       H    0.7966628162    0.2508267729    0.3401964075
H867       H    0.7571817109    0.2416180202    0.3260736481
O803       O    0.7798128561    0.2538630738    0.3194289260
H850       H    0.8653287835    0.1209831712    0.2098460593
H864       H    0.8406015304    0.1207425724    0.2416791262
O819       O    0.8402759892    0.1240211491    0.2156958388
H851       H    0.6946307993    0.1159486417    0.2623569141
H866       H    0.6938034344    0.1541785680    0.2779333313
O834       O    0.6957491490    0.1412629316    0.2553936694
H856       H    0.6827531512    0.2937127921    0.2228813709
H865       H    0.7117971672    0.2984216887    0.1951786841
O836       O    0.7087936493    0.2925205588    0.2203522292
H858       H    0.7973374955    0.1773853129    0.1099496593
H862       H    0.7770279270    0.1420100998    0.1200248178
O839       O    0.7729664614    0.1666009974    0.1124578244
H854       H    0.8554141953    0.3001666259    0.1678782177
H861       H    0.8722089220    0.2718303117    0.1927337675
O840       O    0.8537869570    0.2744798805    0.1733133148
H846       H    0.8503177108    0.2375524644    0.2357355411
O811       O    0.8256657214    0.2279738132    0.2302588634
H849       H    0.7338775348    0.2012768365    0.2821062101
O812       O    0.7479640687    0.2031863809    0.2608125206
H855       H    0.7969062452    0.3306407434    0.1812321979
O818       O    0.7792712935    0.3140964505    0.1920891910
H847       H    0.7799868440    0.1372628814    0.1824163331
O821       O    0.7779513503    0.1606129272    0.1937095407
H848       H    0.7398847174    0.2586843052    0.1671494192
O823       O    0.7516055339    0.2416131422    0.1830176127
H863       H    0.7870342422    0.1011509224    0.2620531214
O827       O    0.7705865715    0.1015338103    0.2406982329
H860       H    0.6875602661    0.2671637194    0.2787133788
O831       O    0.7133416564    0.2639077699    0.2765957106
H852       H    0.6542824553    0.2273514476    0.2424310429
O835       O    0.6741486905    0.2113630453    0.2463895547
H853       H    0.8974034726    0.1865542497    0.1909510183
O843       O    0.8781471464    0.2032588252    0.1868391180
H857       H    0.8311748346    0.1348003623    0.1528755882
O844       O    0.8445635381    0.1579267679    0.1567025256
O810       O    0.7999851411    0.1750799682    0.2508813193
O813       O    0.7736393247    0.2560801832    0.2401893913
O820       O    0.8036319306    0.2135067722    0.1730870847
O822       O    0.7259249536    0.1887192972    0.2036400686
O804       O    0.8534621080    0.2064520511    0.2953726076
O809       O    0.8735573862    0.1779289657    0.2504204879
C824       C    0.8747870311    0.1901161964    0.2800876502
O805       O    0.7874640692    0.1854065031    0.3213217484
O807       O    0.7554997225    0.1402723433    0.2968389877
C826       C    0.7709266816    0.1569864646    0.3209251377
O806       O    0.8335205626    0.3009974192    0.2341723593
O808       O    0.8310841431    0.2752531348    0.2862941254
C825       C    0.8395655911    0.2983799049    0.2657943152
O828       O    0.7180701125    0.1156956911    0.1997265727
O829       O    0.7205065320    0.1414399755    0.1476048066
C830       C    0.7120255377    0.1183154166    0.1680998423
O833       O    0.6981285670    0.2102410592    0.1385263244
O837       O    0.6780332889    0.2387641447    0.1834784441
C838       C    0.6768036439    0.2265769140    0.1538112818
O841       O    0.7641266059    0.2312866073    0.1125771836
O842       O    0.7960909525    0.2764207670    0.1370599443
C845       C    0.7806639935    0.2597066457    0.1129737943
N916       N    0.0072906760    0.4258029501    0.3187593417
C917       C    0.0381856507    0.4075322398    0.3180052887
C918       C   -0.0204923981    0.4000581032    0.3168514738
C919       C    0.0294592465    0.3699987611    0.3147359705
C920       C   -0.0067140683    0.3653961583    0.3139852055
N921       N    0.0565708809    0.4851242640    0.3193523695
C922       C    0.0810288709    0.4589723899    0.3204863498
C923       C    0.0767667549    0.5169739189    0.3198161229
C924       C    0.1142624804    0.5105194060    0.3212604957
C925       C    0.1168968105    0.4747936710    0.3222018224
N926       N   -0.0004937914    0.5308954765    0.3171882618
C927       C    0.0272441212    0.5566846279    0.3175218056
C928       C   -0.0314100017    0.5492286607    0.3174378332
C929       C    0.0134046528    0.5915049480    0.3182763323
C930       C   -0.0227566485    0.5869067483    0.3182747221
N931       N   -0.0496775014    0.4716051860    0.3182366364
C932       C   -0.0698309400    0.4397540830    0.3183104347
C933       C   -0.0740817850    0.4977522759    0.3186928165
C934       C   -0.1098619410    0.4819350328    0.3191147834
C935       C   -0.1072119130    0.4462043153    0.3193234185
C936       C    0.0732408940    0.4223022770    0.3195582952
C937       C   -0.0569618449    0.4057251161    0.3172231458
C938       C   -0.0663620722    0.5344244979    0.3181688199
C939       C    0.0637882871    0.5509957022    0.3186489236
H940       H    0.0488867633    0.3501358421    0.3129844584
H941       H   -0.0230540209    0.3409733396    0.3114974209
H942       H    0.1354762506    0.5310452233    0.3216563980
H943       H    0.1407177647    0.4600150811    0.3236324345
H944       H    0.0297178156    0.6160130703    0.3191339511
H945       H   -0.0422058876    0.6068677523    0.3191258871
H946       H   -0.1336360904    0.4967187226    0.3193133395
H947       H   -0.1283576463    0.4256721289    0.3198723921
Co948     Co    0.0034254843    0.4783634028    0.3183850575
D1015      D    0.2156762303    0.7215743334    0.3034323368
D1016      D    0.1826569446    0.7367134706    0.2950174704
D1017      D    0.1988146092    0.7579671484    0.2688852580
D1018      D    0.2318338950    0.7428280110    0.2773001243
D1019      D    0.1947898274    0.7156636436    0.2864553317
D1020      D    0.2109474920    0.7369173213    0.2603231192
D1021      D    0.2197010122    0.7638778381    0.2858622631
D1022      D    0.2035433476    0.7426241604    0.3119944755
Zr949     Zr    0.2040448381    0.7364984106    0.2827962924
D1023      D    0.2618722187    0.7674644886    0.1550146794
D1024      D    0.2298373693    0.7844670182    0.1467894930
D1025      D    0.2212773907    0.7821984696    0.1827334161
D1026      D    0.2533122402    0.7651959399    0.1909586024
D1027      D    0.2549165636    0.7926506974    0.1543054328
D1028      D    0.2463565850    0.7903821488    0.1902493558
D1029      D    0.2282330459    0.7570122608    0.1834426627
D1030      D    0.2367930245    0.7592808094    0.1474987395
Zr961     Zr    0.2383102394    0.7696400791    0.1616903543
D1031      D    0.2441860118    0.8185187504    0.2691515987
D1032      D    0.2715556447    0.7973004249    0.2584101022
D1033      D    0.2536805620    0.7928362794    0.2246142680
D1034      D    0.2263109291    0.8140546049    0.2353557647
D1035      D    0.2673491203    0.8232200075    0.2576896228
D1036      D    0.2494740378    0.8187558619    0.2238937886
D1037      D    0.2305174533    0.7881350223    0.2360762441
D1038      D    0.2483925360    0.7925991678    0.2698720781
Zr962     Zr    0.2435906975    0.8125476172    0.2444332273
D1039      D    0.2116132619    0.6697644428    0.2016321337
D1040      D    0.2056456385    0.7003361252    0.2216474239
D1041      D    0.1935391537    0.7175326202    0.1903542332
D1042      D    0.1995067771    0.6869609377    0.1703389429
D1043      D    0.1909815893    0.6783900559    0.2141929503
D1044      D    0.1788751045    0.6955865509    0.1828997596
D1045      D    0.2141708263    0.7089070070    0.1777934165
D1046      D    0.2262773111    0.6917105120    0.2090866073
Zr963     Zr    0.1987638289    0.6935885261    0.2000486561
D1048      D    0.1680916674    0.7606433016    0.2253503449
D1049      D    0.1852628510    0.7877486003    0.2056086480
D1050      D    0.1547347413    0.7883396127    0.1819731044
D1051      D    0.1457362016    0.7739073779    0.2242280962
D1052      D    0.1629073852    0.8010126767    0.2044863994
D1053      D    0.1770902072    0.7750755363    0.1830953530
D1054      D    0.1599190236    0.7479702377    0.2028370499
D1047      D    0.1375635577    0.7612343141    0.2017148013
Zr964     Zr    0.1611638781    0.7759340514    0.2091773001
D1055      D    0.2669493861    0.7442946097    0.2499123706
D1056      D    0.2644794476    0.7238201936    0.2184109592
D1057      D    0.2932946281    0.7041328045    0.2315565375
D1058      D    0.2957645666    0.7246072205    0.2630579489
D1059      D    0.2535534932    0.7217998860    0.2419206150
D1060      D    0.2823686737    0.7021124968    0.2550661932
D1061      D    0.3066905210    0.7266275282    0.2395482931
D1062      D    0.2778753405    0.7463149173    0.2264027149
Zr979     Zr    0.2811906483    0.7302020919    0.2353045833
H1006      H    0.2146126000    0.7116167934    0.3455331159
H1014      H    0.2519772359    0.7249938993    0.3326649202
O950       O    0.2302765106    0.7101079743    0.3253880940
H997       H    0.1206446303    0.8285862702    0.2106129152
H1011      H    0.1477655755    0.8324684595    0.2433646869
O966       O    0.1465242068    0.8286621730    0.2174107441
H998       H    0.2948732553    0.8547844119    0.2692108368
H1013      H    0.3014134734    0.8175376160    0.2854121428
O981       O    0.2962350569    0.8295199826    0.2625807501
H1003      H    0.3248968827    0.6799033911    0.2327912935
H1012      H    0.2942963083    0.6712050130    0.2040880688
O983       O    0.2984977831    0.6779691615    0.2293106901
H1005      H    0.1878800282    0.7785702734    0.1138741244
H1009      H    0.2047688207    0.8160802072    0.1241539380
O986       O    0.2111843779    0.7921219914    0.1170935304
H1001      H    0.1486840419    0.6520167184    0.1716492896
H1008      H    0.1303793244    0.6785837823    0.1955079440
O987       O    0.1476723583    0.6776722513    0.1767619310
H993       H    0.1514610081    0.7159701781    0.2388276114
O958       O    0.1745885007    0.7281779544    0.2340806432
H996       H    0.2672047231    0.7664833600    0.2888683131
O959       O    0.2517271294    0.7624491849    0.2670741238
H1002      H    0.2118755619    0.6291256389    0.1875693993
O965       O    0.2283817113    0.6477659262    0.1988203168
H994       H    0.2059412506    0.8218820258    0.1864443154
O968       O    0.2116015909    0.7993535311    0.1981760348
H995       H    0.2593513851    0.7064524665    0.1744220118
O970       O    0.2467865579    0.7222909661    0.1896334497
H1010      H    0.2005955719    0.8585479450    0.2653821106
O974       O    0.2154975056    0.8595954991    0.2445945911
H1007      H    0.3211367222    0.7068397399    0.2881194599
O978       O    0.2947829492    0.7069811667    0.2850289793
H999       H    0.3469895124    0.7491565217    0.2523816560
O982       O    0.3255027166    0.7626928928    0.2553941717
H1000      H    0.0948997885    0.7597058000    0.1915373022
O990       O    0.1158495350    0.7453879428    0.1883602156
H1004      H    0.1521841977    0.8176199751    0.1550014969
O991       O    0.1418158275    0.7933296134    0.1587033708
O957       O    0.1955679685    0.7838451772    0.2548484337
O960       O    0.2307529355    0.7067826122    0.2463058487
O967       O    0.1906221230    0.7436863083    0.1774082442
O969       O    0.2677660257    0.7779581889    0.2104012403
O951       O    0.1491113907    0.7476801284    0.2979562759
O956       O    0.1222241283    0.7724046436    0.2518013227
C971       C    0.1246741496    0.7609362129    0.2816444813
O952       O    0.2146320154    0.7767810576    0.3259778708
O954       O    0.2394266165    0.8244706504    0.3019268864
C973       C    0.2277820623    0.8067424986    0.3257432079
O953       O    0.1756905641    0.6553197637    0.2388191028
O955       O    0.1789975148    0.6822237339    0.2907034360
C972       C    0.1717096777    0.6579363855    0.2702242096
O975       O    0.2666639623    0.8508163796    0.2056627807
O976       O    0.2633570116    0.8239124094    0.1537784475
C977       C    0.2706442976    0.8481974114    0.1742529106
O980       O    0.2932431358    0.7584560149    0.1465256076
O984       O    0.3201303981    0.7337314997    0.1926805608
C985       C    0.3176803768    0.7451999304    0.1628374022
O988       O    0.2277225110    0.7293550857    0.1185040127
O989       O    0.2029279099    0.6816654929    0.1425549970
C992       C    0.2145724641    0.6993936447    0.1187386756
N1063      N    0.2518259139    0.9784932352    0.5678790353
C1064      C    0.2507468694    0.9471536727    0.5868598368
C1065      C    0.2499262265    1.0051641316    0.5927572197
C1066      C    0.2472747654    0.9543838090    0.6239060743
C1067      C    0.2467291024    0.9901415540    0.6275341150
N1068      N    0.2524669952    0.9312923303    0.5099347466
C1069      C    0.2532848171    0.9063217329    0.5367434498
C1070      C    0.2529992616    0.9121933598    0.4786746111
C1071      C    0.2541664071    0.8748689391    0.4861659816
C1072      C    0.2548750223    0.8712990779    0.5219675018
N1073      N    0.2509493360    0.9891559660    0.4626399644
C1074      C    0.2512625098    0.9623650983    0.4376148294
C1075      C    0.2515203389    1.0204652291    0.4435636949
C1076      C    0.2523321631    0.9772302153    0.4025420026
C1077      C    0.2525416770    1.0130552225    0.4062142814
N1078      N    0.2519625198    1.0364350877    0.5206616174
C1079      C    0.2519718733    1.0555485593    0.5519589559
C1080      C    0.2527473659    1.0615199917    0.4939616407
C1081      C    0.2533113743    1.0966810944    0.5088736781
C1082      C    0.2532812220    1.0930181344    0.5446333052
C1083      C    0.2521721229    0.9128911629    0.5731024676
C1084      C    0.2505781320    1.0416365431    0.5861954473
C1085      C    0.2523967009    1.0548652318    0.4575051072
C1086      C    0.2521209148    0.9259759493    0.4442970716
H1087      H    0.2452562937    0.9342958851    0.6441209471
H1088      H    0.2441771524    1.0054105703    0.6513456381
H1089      H    0.2545528783    0.8544179004    0.4662347286
H1090      H    0.2560670577    0.8473274081    0.5374223875
H1091      H    0.2532414390    0.9618182682    0.3785394538
H1092      H    0.2536532572    1.0330725903    0.3858428308
H1093      H    0.2537614386    1.1207783418    0.4935199901
H1094      H    0.2538467970    1.1135010670    0.5646336031
Co1095    Co    0.2518021245    0.9838415373    0.5152725492
D1162      D    0.2301466030    0.1228545736    0.8080214961
D1163      D    0.2603375171    0.1322282363    0.7885408262
D1164      D    0.2399617158    0.1558494571    0.7678901764
D1165      D    0.2097708016    0.1464757945    0.7873708463
D1166      D    0.2502745271    0.1413431632    0.8105286561
D1167      D    0.2298987258    0.1649643841    0.7898780064
D1168      D    0.2198337916    0.1373608674    0.7653830164
D1169      D    0.2402095928    0.1137396467    0.7860336661
Zr1096    Zr    0.2383687253    0.1430916796    0.7906600649
D1170      D    0.1684234595    0.2645200776    0.7599213167
D1171      D    0.1974316571    0.2735274338    0.7387096651
D1172      D    0.2087213120    0.2384968365    0.7418505161
D1173      D    0.1797131143    0.2294894805    0.7630621678
D1174      D    0.1722149998    0.2640361071    0.7339357050
D1175      D    0.1835046547    0.2290055100    0.7370765561
D1176      D    0.2049297716    0.2389808070    0.7678361279
D1177      D    0.1936401167    0.2740114043    0.7646952768
Zr1108    Zr    0.1919083603    0.2591684851    0.7552945417
D1178      D    0.1878922192    0.1489978784    0.7129254693
D1179      D    0.1626458811    0.1593720821    0.7367831599
D1180      D    0.1784266339    0.1942873060    0.7373181019
D1181      D    0.2036729721    0.1839131022    0.7134604115
D1182      D    0.1636333538    0.1586873352    0.7103933775
D1183      D    0.1794141065    0.1936025591    0.7109283197
D1184      D    0.2026854995    0.1845978492    0.7398501939
D1185      D    0.1869047466    0.1496826254    0.7393152518
Zr1109    Zr    0.1874354232    0.1739578403    0.7175035712
D1186      D    0.2331283647    0.2274822135    0.8538292133
D1187      D    0.2367744689    0.2060176020    0.8236854001
D1188      D    0.2444327651    0.2367200628    0.8034379031
D1189      D    0.2407866609    0.2581846744    0.8335817162
D1190      D    0.2533635317    0.2156997757    0.8434300938
D1191      D    0.2610218279    0.2464022365    0.8231825968
D1192      D    0.2241975981    0.2485025007    0.8138370225
D1193      D    0.2165393019    0.2178000399    0.8340845195
Zr1110    Zr    0.2428421491    0.2283072367    0.8284530582
D1195      D    0.2668786301    0.2007513871    0.7592572929
D1196      D    0.2452541288    0.2175932823    0.7332292237
D1197      D    0.2736481492    0.2428579414    0.7277505373
D1198      D    0.2872830556    0.2023629484    0.7433036205
D1199      D    0.2656585542    0.2192048436    0.7172755513
D1200      D    0.2532437238    0.2412463801    0.7437042097
D1201      D    0.2748682251    0.2244044848    0.7697322789
D1194      D    0.2952726505    0.2260160461    0.7537786064
Zr1111    Zr    0.2707295031    0.2162511126    0.7423268803
D1202      D    0.1729607158    0.1714665015    0.7886485851
D1203      D    0.1756150422    0.2041989714    0.8071091475
D1204      D    0.1504602413    0.1906706895    0.8308744953
D1205      D    0.1478059149    0.1579382196    0.8124139329
D1206      D    0.1883249551    0.1816409524    0.8090633003
D1207      D    0.1631701542    0.1681126705    0.8328286481
D1208      D    0.1350960020    0.1804962386    0.8104597801
D1209      D    0.1602508029    0.1940245205    0.7866944323
Zr1126    Zr    0.1595480692    0.1860139644    0.8036297491
H1153      H    0.2353959179    0.0817506402    0.8200499611
H1161      H    0.1959681218    0.0914299127    0.8104844952
O1097      O    0.2186707995    0.1009082358    0.8223582443
H1144      H    0.3045207357    0.2139024501    0.6850598057
H1158      H    0.2796040388    0.1795055318    0.6861526525
O1113      O    0.2794369804    0.2055930857    0.6884293871
H1145      H    0.1334771512    0.1435812430    0.6828045569
H1160      H    0.1326502642    0.1294768418    0.7215874271
O1128      O    0.1346963304    0.1516936611    0.7078133346
H1150      H    0.1222495437    0.1890911249    0.8588727191
H1159      H    0.1514704090    0.2199843213    0.8623821185
O1130      O    0.1483062991    0.1942564562    0.8574698004
H1152      H    0.2372316531    0.3091066049    0.7378481071
H1156      H    0.2167759995    0.2954929463    0.7029958546
O1133      O    0.2128162646    0.3036457224    0.7272818382
H1148      H    0.2952743575    0.2621652922    0.8624409362
H1155      H    0.3118603073    0.2378810804    0.8350228919
O1134      O    0.2935541822    0.2555136050    0.8370036781
H1140      H    0.2896343382    0.1912173828    0.8025395536
O1105      O    0.2649871381    0.1937628188    0.7928716179
H1143      H    0.1728190487    0.1313559896    0.7686080674
O1106      O    0.1870360495    0.1541830542    0.7696342143
H1149      H    0.2367515245    0.2440211297    0.8936473174
O1112      O    0.2190112209    0.2306695149    0.8776198018
H1141      H    0.2193621723    0.2332030192    0.7006406073
O1115      O    0.2173163875    0.2226508710    0.7244035544
H1142      H    0.1796307657    0.2492921845    0.8214945744
O1117      O    0.1912208908    0.2339332871    0.8050039172
H1157      H    0.2258628334    0.1528069421    0.6676063212
O1121      O    0.2095371658    0.1724852507    0.6672402728
H1154      H    0.1266703967    0.1326627625    0.8344835393
O1125      O    0.1524607020    0.1373056477    0.8310365469
H1146      H    0.0935026706    0.1638959629    0.7934748615
O1129      O    0.1133112656    0.1613324715    0.7775716788
H1147      H    0.3368665357    0.2387821615    0.7496776778
O1137      O    0.3176705475    0.2415911582    0.7662875137
H1151      H    0.2707243693    0.2679247298    0.6968194413
O1138      O    0.2841481827    0.2664209287    0.7200038591
O1104      O    0.2390566815    0.1683317899    0.7409527122
O1107      O    0.2129611848    0.1796142060    0.8215530749
O1114      O    0.2432468441    0.2480818999    0.7763224601
O1116      O    0.1652904342    0.2085022582    0.7530850115
O1098      O    0.2923592857    0.1306262722    0.7737585808
O1103      O    0.3126508750    0.1764932693    0.7434554134
C1118      C    0.3137376257    0.1474454550    0.7567620673
O1099      O    0.2261494157    0.0970108991    0.7540294874
O1101      O    0.1942142592    0.1163609527    0.7081537061
C1120      C    0.2095438852    0.0945432741    0.7257041011
O1100      O    0.2729943945    0.1936377317    0.8659162585
O1102      O    0.2701939223    0.1402063118    0.8422201545
C1119      C    0.2788507733    0.1625272029    0.8644912722
O1122      O    0.1572831778    0.2086273452    0.6800403709
O1123      O    0.1600836500    0.2620587652    0.7037364748
C1124      C    0.1514272857    0.2397427863    0.6814673799
O1127      O    0.1379182866    0.2716388047    0.7721980485
O1131      O    0.1176266973    0.2257718077    0.8025012159
C1132      C    0.1165399466    0.2548196219    0.7891945620
O1135      O    0.2041281566    0.3052541779    0.7919271420
O1136      O    0.2360633131    0.2859041243    0.8378029232
C1139      C    0.2207336871    0.3077218029    0.8202525282
N1210      N    0.9862707978    0.4234864912    0.7303894364
C1211      C    1.0120913844    0.3987768887    0.7296085464
C1212      C    0.9538781231    0.4039906295    0.7283920161
C1213      C    0.9955128287    0.3635180677    0.7262317721
C1214      C    0.9596271396    0.3667367359    0.7254423606
N1215      N    1.0466986864    0.4715402164    0.7311783221
C1216      C    1.0645966730    0.4404416732    0.7322594147
C1217      C    1.0731027908    0.4986879108    0.7317426763
C1218      C    1.1078584668    0.4842613188    0.7331967740
C1219      C    1.1026277692    0.4483879903    0.7340435372
N1220      N    1.0016233226    0.5290322891    0.7290964361
C1221      C    1.0339826098    0.5485664931    0.7295197070
C1222      C    0.9757960150    0.5538033553    0.7293730258
C1223      C    1.0282097902    0.5859697504    0.7303581223
C1224      C    0.9923363929    0.5891974038    0.7303178441
N1225      N    0.9412946888    0.4810042974    0.7299490146
C1226      C    0.9149310128    0.4538512267    0.7299222090
C1227      C    0.9234469212    0.5121018810    0.7304580196
C1228      C    0.8855006426    0.5041612712    0.7308112915
C1229      C    0.8802842459    0.4682725866    0.7309254023
C1230      C    1.0491101264    0.4058571454    0.7312267845
C1231      C    0.9199402669    0.4174356339    0.7287524814
C1232      C    0.9388685814    0.5466891832    0.7300386358
C1233      C    1.0679872541    0.5350982003    0.7306579429
H1234      H    1.0099284389    0.3396899233    0.7244408548
H1235      H    0.9385577332    0.3460823731    0.7228769333
H1236      H    1.1327811301    0.4999955500    0.7336634569
H1237      H    1.1223851695    0.4286721246    0.7354514788
H1238      H    1.0492724630    0.6066984976    0.7312936856
H1239      H    0.9779214714    0.6131185069    0.7312087137
H1240      H    0.8657889425    0.5238878076    0.7310324748
H1241      H    0.8554254935    0.4525265342    0.7314035745
Co1242    Co    0.9939760873    0.4762715648    0.7301542269
N1243      N    0.4412315277    0.2194232552    0.9915683273
C1244      C    0.4233474497    0.2181670379    1.0226387375
C1245      C    0.4148206688    0.2174878974    0.9644584891
C1246      C    0.3853472337    0.2145536924    1.0147409099
C1247      C    0.3800941200    0.2140955658    0.9788760743
N1248      N    0.5016891332    0.2202163989    1.0395401907
C1249      C    0.4758550365    0.2208226195    1.0642628743
C1250      C    0.5340515004    0.2208475461    1.0590616537
C1251      C    0.5282418463    0.2218624790    1.0964009834
C1252      C    0.4924177673    0.2223760915    1.0995911394
N1253      N    0.5466616714    0.2191119399    0.9820978692
C1254      C    0.5730520455    0.2194722699    1.0092292409
C1255      C    0.5645875939    0.2198640600    0.9510268074
C1256      C    0.6078505532    0.2207530392    0.9948382916
C1257      C    0.6026326453    0.2210447805    0.9589533486
N1258      N    0.4863038437    0.2199613325    0.9341513746
C1259      C    0.4539626653    0.2198678738    0.9146491926
C1260      C    0.5121989323    0.2209463572    0.9094143044
C1261      C    0.4957289636    0.2215317523    0.8740820306
C1262      C    0.4598702256    0.2213117061    0.8773191610
C1263      C    0.4388335965    0.2195537609    1.0571836471
C1264      C    0.4199299133    0.2182722011    0.9280757583
C1265      C    0.5491620896    0.2207623319    0.9164875902
C1266      C    0.5679831945    0.2201873520    1.0456226761
H1267      H    0.3656330513    0.2123904940    1.0344763488
H1268      H    0.3551770281    0.2114853554    0.9631489556
H1269      H    0.5492372709    0.2222880774    1.1171311536
H1270      H    0.4780159305    0.2234138010    1.1234732827
H1271      H    0.6327863896    0.2217326097    1.0106068983
H1272      H    0.6224082948    0.2223080118    0.9392330644
H1273      H    0.5102032049    0.2221245140    0.8501768029
H1274      H    0.4389080941    0.2218312434    0.8566164296
Co1275    Co    0.4939780952    0.2196791825    0.9868421942
N1276      N    0.5566185869    0.8087513978    0.9957563683
C1277      C    0.5809584385    0.8079194868    0.9696132764
C1278      C    0.5766884572    0.8074110959    1.0275446806
C1279      C    0.6165240608    0.8051748696    0.9853374198
C1280      C    0.6138852269    0.8048218868    1.0210476121
N1281      N    0.5072917875    0.8081725610    0.9365216910
C1282      C    0.5382837578    0.8093855127    0.9182341174
C1283      C    0.4795674339    0.8080668592    0.9107552469
C1284      C    0.4935232431    0.8092328430    0.8760062883
C1285      C    0.5297117157    0.8105740660    0.8806287981
N1286      N    0.4502046567    0.8060056312    0.9822484557
C1287      C    0.4300200967    0.8057697611    0.9504212164
C1288      C    0.4257785635    0.8063319600    1.0083759717
C1289      C    0.3925707006    0.8062435815    0.9568469041
C1290      C    0.3899591411    0.8066404204    0.9925796691
N1291      N    0.4995838630    0.8082264108    1.0414607682
C1292      C    0.5273391119    0.8088698760    1.0672117687
C1293      C    0.4686694904    0.8086049348    1.0597719110
C1294      C    0.4773384999    0.8095553163    1.0973918126
C1295      C    0.5135064347    0.8101629424    1.1019659533
C1296      C    0.5732666502    0.8089655953    0.9329922087
C1297      C    0.5637932007    0.8080627617    1.0615472282
C1298      C    0.4336141675    0.8075718094    1.0450112551
C1299      C    0.4430106440    0.8066181023    0.9164211469
H1300      H    0.6401304389    0.8034723366    0.9705059822
H1301      H    0.6348915259    0.8027765134    1.0415277806
H1302      H    0.4772914912    0.8091838966    0.8515117997
H1303      H    0.5492465148    0.8119550886    0.8607034123
H1304      H    0.3714103002    0.8066562179    0.9362993447
H1305      H    0.3662154423    0.8074406473    1.0073704040
H1306      H    0.4578715922    0.8098047689    1.1173472675
H1307      H    0.5297950016    0.8111572445    1.1264403673
Co1308    Co    0.5034189238    0.8077898022    0.9889927720
C1779      C    0.3830464587    0.2036983377    0.9114523545
C1780      C    0.3513139423    0.2094665572    0.9278153778
C1781      C    0.3182465808    0.1964977784    0.9130219022
C1782      C    0.3157342279    0.1771010663    0.8811146760
C1783      C    0.3476000215    0.1712577573    0.8647220090
C1784      C    0.3805538317    0.1843769390    0.8796785626
H1785      H    0.3536567349    0.2244115991    0.9525192671
H1786      H    0.2938377831    0.2012123358    0.9261003356
H1787      H    0.3461359692    0.1563070758    0.8399867612
H1788      H    0.4053885537    0.1801905274    0.8672099885
C1769      C    0.0971699088    0.2982069917    0.7725426113
C1770      C    0.1067351817    0.3132495027    0.7403280646
C1771      C    0.0927140072    0.3447412633    0.7281174436
C1772      C    0.0684801642    0.3624697757    0.7478787352
C1773      C    0.0589278481    0.3473983469    0.7802506799
C1774      C    0.0730404363    0.3158596704    0.7922319673
H1775      H    0.1255717922    0.2993217766    0.7253740793
H1776      H    0.1004471991    0.3560789774    0.7030180668
H1777      H    0.0401751537    0.3607704424    0.7958772384
H1778      H    0.0657681906    0.3038275893    0.8171349460
C1759      C    0.2202427576    1.0807488850    0.6893299648
C1760      C    0.2466052064    1.0561670139    0.6871143138
C1761      C    0.2563004758    1.0436594903    0.6544386149
C1762      C    0.2398792596    1.0554309321    0.6225695836
C1763      C    0.2134575125    1.0801578465    0.6247951238
C1764      C    0.2038879878    1.0924817174    0.6575959421
H1765      H    0.2591522653    1.0473724168    0.7119512586
H1766      H    0.2768594052    1.0245606649    0.6531957132
H1767      H    0.2004546998    1.0895354913    0.6003736042
H1768      H    0.1833938470    1.1114822481    0.6597145788
C1749      C    0.4001482605    0.7895672959    0.0790234172
C1750      C    0.3769173022    0.8119540346    0.0945941505
C1751      C    0.3528274661    0.7991380975    0.1190058563
C1752      C    0.3511462838    0.7632044439    0.1288252401
C1753      C    0.3745145878    0.7407445219    0.1132384023
C1754      C    0.3984845875    0.7537805995    0.0888015605
H1755      H    0.3785752858    0.8396886684    0.0868418799
H1756      H    0.3349646599    0.8169114802    0.1308689430
H1757      H    0.3735507208    0.7128378156    0.1205289115
H1758      H    0.4165962673    0.7366834793    0.0764272771
C1739      C    0.2454137559    0.8931182908    0.4116266897
C1740      C    0.2611605382    0.8968073973    0.3790072413
C1741      C    0.2558997634    0.8706220359    0.3528480466
C1742      C    0.2344892213    0.8396001572    0.3584135898
C1743      C    0.2186300883    0.8359280477    0.3911393930
C1744      C    0.2240845779    0.8622291457    0.4171752915
H1745      H    0.2775592835    0.9209657250    0.3750216957
H1746      H    0.2683317186    0.8739226786    0.3276316093
H1747      H    0.2019867754    0.8120595655    0.3958969085
H1748      H    0.2121148894    0.8596677353    0.4426570810
C1729      C    0.0918185034    0.5787712012    0.3060716653
C1730      C    0.1017132332    0.5793901290    0.2708837594
C1731      C    0.1271102340    0.6045558327    0.2593496544
C1732      C    0.1436794614    0.6301608864    0.2828014679
C1733      C    0.1337896795    0.6294974201    0.3181431297
C1734      C    0.1083194150    0.6042642236    0.3294353307
H1735      H    0.0887710456    0.5593804178    0.2530663612
H1736      H    0.1345019173    0.6046506451    0.2319024287
H1737      H    0.1463433512    0.6491496869    0.3366503594
H1738      H    0.1003044701    0.6035401534    0.3566449778
C1719      C    0.5947950557    0.2217616522    0.0722788597
C1720      C    0.6305898072    0.2188312955    0.0646973637
C1721      C    0.6577454189    0.2204322795    0.0915166417
C1722      C    0.6499917827    0.2250026138    0.1271550982
C1723      C    0.6140474625    0.2278811604    0.1347701439
C1724      C    0.5870638635    0.2263075482    0.1077694571
H1725      H    0.6361904704    0.2152029307    0.0370493323
H1726      H    0.6854331662    0.2180940708    0.0851578950
H1727      H    0.6075746081    0.2314524059    0.1622264155
H1728      H    0.5591774326    0.2286514204    0.1132591424
C1709      C    0.9170610844    0.3787758068    0.3043117970
C1710      C    0.9112991224    0.3471255331    0.3229450836
C1711      C    0.8860475387    0.3208571448    0.3105036061
C1712      C    0.8655426617    0.3253292142    0.2787056640
C1713      C    0.8713746446    0.3570792936    0.2599686434
C1714      C    0.8966485888    0.3832350316    0.2726401140
H1715      H    0.9274076765    0.3439752921    0.3474292317
H1716      H    0.8819173926    0.2964026803    0.3253149912
H1717      H    0.8557096935    0.3609844352    0.2353057417
H1718      H    0.9013241371    0.4079767666    0.2585052948
C1699      C    0.7562300534    0.0845281378    0.3996386445
C1700      C    0.7596312488    0.0737530576    0.3645778193
C1701      C    0.7646322264    0.0984323224    0.3375765804
C1702      C    0.7664774013    0.1350503170    0.3447549884
C1703      C    0.7631258101    0.1458637873    0.3799666408
C1704      C    0.7580724707    0.1209942596    0.4067972293
H1705      H    0.7582592374    0.0453672319    0.3594231947
H1706      H    0.7672397292    0.0895972120    0.3104635563
H1707      H    0.7644705005    0.1741212235    0.3859859297
H1708      H    0.7552828946    0.1289828995    0.4341096004
C1689      C    0.6159481593    0.8082685738    0.9113487336
C1690      C    0.6183422026    0.7905960587    0.8790463416
C1691      C    0.6506391974    0.7900205399    0.8625280502
C1692      C    0.6819429235    0.8071908292    0.8778832806
C1693      C    0.6795495769    0.8248792247    0.9103449381
C1694      C    0.6471202723    0.8253661078    0.9266507642
H1695      H    0.5939619372    0.7773484210    0.8675258797
H1696      H    0.6520302754    0.7761435182    0.8374254590
H1697      H    0.7035309159    0.8383321475    0.9225914244
H1698      H    0.6448498143    0.8390702855    0.9516734688
C1679      C    0.8918485514    0.6544472028    0.7722127066
C1680      C    0.8848513368    0.6429754092    0.7371371954
C1681      C    0.8984081307    0.6118618298    0.7248247837
C1682      C    0.9195649488    0.5909282282    0.7473528053
C1683      C    0.9265354098    0.6024151531    0.7825837600
C1684      C    0.9129129453    0.6336020286    0.7946566440
H1685      H    0.8683737756    0.6593566456    0.7200411459
H1686      H    0.8926973718    0.6033217575    0.6974780673
H1687      H    0.9428905279    0.5865311459    0.8003797797
H1688      H    0.9182203846    0.6428799476    0.8217860067
C1669      C    0.7615683982    0.9228271185    0.6083441255
C1670      C    0.7484509135    0.9342501127    0.6401368479
C1671      C    0.7554161503    0.9164804745    0.6719330813
C1672      C    0.7759562106    0.8864518268    0.6730728742
C1673      C    0.7891773560    0.8750235093    0.6411637015
C1674      C    0.7820302270    0.8929257456    0.6094715636
H1675      H    0.7327016411    0.9575577611    0.6388901165
H1676      H    0.7450228850    0.9257267776    0.6964120370
H1677      H    0.8051135190    0.8518007220    0.6415679506
H1678      H    0.7919512822    0.8842896887    0.5845774644
C1659      C    0.7713039383    0.2938166390    1.0963988054
C1660      C    0.7977394322    0.3200963375    1.0893636390
C1661      C    0.7890626234    0.3522050200    1.0737544154
C1662      C    0.7533509171    0.3592411928    1.0646072057
C1663      C    0.7268077760    0.3328805411    1.0717291452
C1664      C    0.7357354487    0.3008183522    1.0872975462
H1665      H    0.8252229762    0.3143471653    1.0966650638
H1666      H    0.8099478756    0.3723539138    1.0684806910
H1667      H    0.6990180674    0.3378856145    1.0647939222
H1668      H    0.7155005229    0.2801408785    1.0928107545
C1649      C    0.7507422776    0.5678796375    0.9019305455
C1650      C    0.7773010507    0.5951088337    0.9077474234
C1651      C    0.7827269902    0.6218260524    0.8827987298
C1652      C    0.7615770838    0.6222868789    0.8509217424
C1653      C    0.7348721310    0.5949834199    0.8451128093
C1654      C    0.7296706110    0.5683344462    0.8701892721
H1655      H    0.7933842288    0.5944844602    0.9325452823
H1656      H    0.8034868217    0.6428044705    0.8877509351
H1657      H    0.7182669207    0.5949256481    0.8205571308
H1658      H    0.7092267363    0.5469766431    0.8659752600
C1639      C    0.2256198763    0.3309079720    0.8424985325
C1640      C    0.1985634699    0.3392885527    0.8646098661
C1641      C    0.2040767771    0.3659390395    0.8902714722
C1642      C    0.2370906819    0.3853397653    0.8947231970
C1643      C    0.2642318143    0.3769662308    0.8724803712
C1644      C    0.2584997165    0.3502284843    0.8469215017
H1645      H    0.1731453395    0.3241535452    0.8608106720
H1646      H    0.1827467804    0.3721221304    0.9072317026
H1647      H    0.2899690915    0.3917161213    0.8755861024
H1648      H    0.2792961785    0.3433698843    0.8296493287
C1629      C    0.2352493981    0.5932297260    1.0573712240
C1630      C    0.2320924730    0.5934313046    1.0941191615
C1631      C    0.2260460207    0.6245554121    1.1122576185
C1632      C    0.2228637236    0.6568228943    1.0941308946
C1633      C    0.2259704556    0.6566046820    1.0572287163
C1634      C    0.2320754648    0.6253596728    1.0393103255
H1635      H    0.2345031337    0.5682835479    1.1077821869
H1636      H    0.2236462505    0.6242375759    1.1408304764
H1637      H    0.2235960501    0.6813664759    1.0427826933
H1638      H    0.2346896293    0.6248363438    1.0108061637
C1619      C    0.3989956795    1.0713291687    0.7604011879
C1620      C    0.4001116759    1.0999784291    0.7840658293
C1621      C    0.3732453009    1.1241103527    0.7829956388
C1622      C    0.3440539162    1.1203798190    0.7580560757
C1623      C    0.3429040927    1.0915801068    0.7343401000
C1624      C    0.3699242682    1.0676032800    0.7355644335
H1625      H    0.4227742743    1.1024831935    0.8032714546
H1626      H    0.3745233703    1.1462280937    0.8015995172
H1627      H    0.3204984704    1.0883090437    0.7148415552
H1628      H    0.3694565938    1.0453057566    0.7172884286
C1609      C    0.6007796691    0.9030711117    0.7567952645
C1610      C    0.6069004072    0.8786432225    0.7840131359
C1611      C    0.6315135533    0.8525790395    0.7810789896
C1612      C    0.6510694241    0.8500403402    0.7505991563
C1613      C    0.6449682384    0.8746061051    0.7233016447
C1614      C    0.6202556062    0.9005534582    0.7264393104
H1615      H    0.5916771818    0.8809758992    0.8074661606
H1616      H    0.6359541722    0.8338056483    0.8024977751
H1617      H    0.6598691868    0.8730032501    0.6995045137
H1618      H    0.6151564339    0.9196188081    0.7054760143
C1599      C    0.3656037220    0.7681067451    0.8359083064
C1600      C    0.4022343072    0.7656743639    0.8319149277
C1601      C    0.4275504375    0.7782106444    0.8580654333
C1602      C    0.4170382351    0.7936963546    0.8894066066
C1603      C    0.3802594073    0.7960797801    0.8934404676
C1604      C    0.3551258032    0.7835223338    0.8671207646
H1605      H    0.4099802414    0.7535508733    0.8076048867
H1606      H    0.4559232989    0.7760982970    0.8545382568
H1607      H    0.3716560158    0.8080176600    0.9175395338
H1608      H    0.3266113771    0.7853357531    0.8698206529
C1589      C    0.1500355932    0.6165780734    0.7355154609
C1590      C    0.1140950937    0.6243508114    0.7366875906
C1591      C    0.0869131870    0.5975350310    0.7350647224
C1592      C    0.0947841893    0.5617094749    0.7322444052
C1593      C    0.1308723752    0.5539048075    0.7311312317
C1594      C    0.1578834647    0.5809013374    0.7327126902
H1595      H    0.1084007090    0.6521461774    0.7389746751
H1596      H    0.0591108983    0.6040443647    0.7360229468
H1597      H    0.1374382540    0.5263013627    0.7289285808
H1598      H    0.1858866310    0.5752603245    0.7317222735
C1579      C    0.2565814718    0.8890538923    0.5950503863
C1580      C    0.2811734102    0.8938282947    0.6241308050
C1581      C    0.2862206848    0.8669983117    0.6489916308
C1582      C    0.2667346172    0.8341652267    0.6455885535
C1583      C    0.2420917897    0.8293526771    0.6163575898
C1584      C    0.2371753688    0.8563561126    0.5916506110
H1585      H    0.2961295574    0.9192995187    0.6263782438
H1586      H    0.3054605108    0.8711501180    0.6714371343
H1587      H    0.2267628060    0.8040955410    0.6133309128
H1588      H    0.2181008070    0.8530543380    0.5690091648
C1569      C    0.2530338989    0.5540154258    0.8698059614
C1570      C    0.2350501506    0.5433245951    0.8377833470
C1571      C    0.2438329936    0.5588148469    0.8056638735
C1572      C    0.2711669365    0.5857208906    0.8044216765
C1573      C    0.2892627008    0.5964079302    0.8365653114
C1574      C    0.2802612434    0.5808065776    0.8685769555
H1575      H    0.2140513978    0.5224288495    0.8391185739
H1576      H    0.2295894033    0.5501766715    0.7810101116
H1577      H    0.3104871052    0.6172260128    0.8360846354
H1578      H    0.2939239490    0.5889185800    0.8936458750
C1559      C    0.4228538195    0.8757017667    0.7445519071
C1560      C    0.3967738563    0.8560150198    0.7624159859
C1561      C    0.3820657726    0.8235926743    0.7491301561
C1562      C    0.3930494551    0.8095779531    0.7172827814
C1563      C    0.4192787372    0.8293149883    0.6993827923
C1564      C    0.4338024547    0.8617487393    0.7128372858
H1565      H    0.3886074325    0.8671114173    0.7870550386
H1566      H    0.3618238977    0.8086236071    0.7633640753
H1567      H    0.4280744886    0.8188597967    0.6746715213
H1568      H    0.4539869991    0.8773626995    0.6991945987
C1549      C    1.0712825096    0.6907980206    0.3839396169
C1550      C    1.0596071454    0.7242722739    0.3745830381
C1551      C    1.0740908396    0.7434809426    0.3467597880
C1552      C    1.1009382640    0.7297554492    0.3271209948
C1553      C    1.1126129254    0.6961210594    0.3364766062
C1554      C    1.0980154743    0.6771189011    0.3643825075
H1555      H    1.0387673060    0.7345164618    0.3899185569
H1556      H    1.0646948423    0.7694634684    0.3398287357
H1557      H    1.1334007671    0.6851066161    0.3215576405
H1558      H    1.1068995419    0.6511534853    0.3720035433
C1539      C    0.9057242112    0.6746496067    0.5988967532
C1540      C    0.8892589956    0.6503326121    0.6216311486
C1541      C    0.8658841349    0.6611763128    0.6464420783
C1542      C    0.8580471015    0.6970007514    0.6493773845
C1543      C    0.8745300560    0.7214021184    0.6265086028
C1544      C    0.8979201217    0.7103283936    0.6018094895
H1545      H    0.8954754659    0.6227116473    0.6190043767
H1546      H    0.8533026547    0.6419182198    0.6639042964
H1547      H    0.8687744251    0.7492521953    0.6284417457
H1548      H    0.9109730767    0.7289304178    0.5840692120
C1529      C    1.1730803856    0.6577535974    0.6103929400
C1530      C    1.1480950869    0.6292474051    0.6141017771
C1531      C    1.1137769317    0.6294352269    0.5979105470
C1532      C    1.1031697755    0.6583467995    0.5772290949
C1533      C    1.1282770681    0.6869367848    0.5734558847
C1534      C    1.1625267302    0.6865481533    0.5897930030
H1535      H    1.1566853821    0.6070288450    0.6300754870
H1536      H    1.0946875049    0.6070465183    0.6010578028
H1537      H    1.1204973974    0.7095498093    0.5575487992
H1538      H    1.1821569092    0.7085397010    0.5872284553
C1519      C    0.6436982635    0.7722491004    0.1407449261
C1520      C    0.6434213763    0.8078542246    0.1304714987
C1521      C    0.6180684208    0.8193621295    0.1052668224
C1522      C    0.5918549245    0.7954854226    0.0893605337
C1523      C    0.5920965632    0.7597514802    0.0997230356
C1524      C    0.6175919082    0.7484647181    0.1249129464
H1525      H    0.6637707276    0.8260415291    0.1430554052
H1526      H    0.6182285150    0.8471428874    0.0975943353
H1527      H    0.5719987257    0.7409031667    0.0876525600
H1528      H    0.6181891229    0.7208887751    0.1330588156
C1509      C    0.9001854668    0.5684495540    0.3001606041
C1510      C    0.8754905490    0.5824314496    0.3220245810
C1511      C    0.8514397578    0.6068879457    0.3092156933
C1512      C    0.8512001898    0.6182732962    0.2737907224
C1513      C    0.8759517668    0.6041864150    0.2518260097
C1514      C    0.8999496009    0.5797785502    0.2648778040
H1515      H    0.8759002387    0.5733211550    0.3493203007
H1516      H    0.8324088689    0.6174829983    0.3265723374
H1517      H    0.8761446157    0.6127338094    0.2243272490
H1518      H    0.9193355819    0.5687894797    0.2482336551
C1499      C    0.7451165453    0.9010883404    0.4036919309
C1500      C    0.7371916243    0.8655832169    0.4123658579
C1501      C    0.7318520188    0.8394034722    0.3862081598
C1502      C    0.7343236536    0.8478688246    0.3501686122
C1503      C    0.7423426508    0.8835053459    0.3414681285
C1504      C    0.7475857526    0.9095265739    0.3678027056
H1505      H    0.7354649353    0.8593968782    0.4403319940
H1506      H    0.7257245633    0.8119247095    0.3934168836
H1507      H    0.7443345894    0.8905257714    0.3136842409
H1508      H    0.7536470313    0.9372067564    0.3614443120
C1489      C    0.7355919168    0.5468117047    0.1038055388
C1490      C    0.7616326189    0.5706102390    0.1197212825
C1491      C    0.7556021405    0.5886876385    0.1508729527
C1492      C    0.7230756583    0.5835189330    0.1673669973
C1493      C    0.6969578593    0.5595780294    0.1514199220
C1494      C    0.7031980532    0.5416539484    0.1202288188
H1495      H    0.7866892686    0.5742733632    0.1067459754
H1496      H    0.7761433374    0.6070867839    0.1629016127
H1497      H    0.6716083047    0.5552784415    0.1638316055
H1498      H    0.6831838864    0.5231864384    0.1075270525
C1479      C    0.8103638952    0.6626793240    0.3802594319
C1480      C    0.8352060313    0.6917112900    0.3796571958
C1481      C    0.8685966166    0.6910363089    0.3977494288
C1482      C    0.8784191139    0.6610415427    0.4171929796
C1483      C    0.8535005638    0.6318723263    0.4177439120
C1484      C    0.8201404628    0.6328011767    0.3996161547
H1485      H    0.8273028497    0.7146817383    0.3644391877
H1486      H    0.8875971896    0.7138344065    0.3969905337
H1487      H    0.8606651467    0.6084376647    0.4326901802
H1488      H    0.8005553254    0.6104988922    0.3999417936
C1469      C    0.3784422159    0.9065963904    0.1716051003
C1470      C    0.3751627544    0.8712815666    0.1827894993
C1471      C    0.3418267596    0.8530971610    0.1836781510
C1472      C    0.3103474780    0.8697064093    0.1732776924
C1473      C    0.3136483372    0.9051414766    0.1619897371
C1474      C    0.3470972675    0.9231431694    0.1612399428
H1475      H    0.3997209340    0.8587360015    0.1906557314
H1476      H    0.3397602393    0.8256441686    0.1924328983
H1477      H    0.2895390627    0.9184115599    0.1538648188
H1478      H    0.3500307437    0.9505931101    0.1527201625
C1459      C    0.6730186592    1.0998247924    0.1683993262
C1460      C    0.6442858227    1.1182724197    0.1795334148
C1461      C    0.6099437592    1.1021322119    0.1798154005
C1462      C    0.6030826361    1.0666726721    0.1689362754
C1463      C    0.6319437943    1.0481354068    0.1578182802
C1464      C    0.6661954442    1.0645082476    0.1575687479
H1465      H    0.6499900669    1.1456313287    0.1879708161
H1466      H    0.5879107774    1.1168568270    0.1885649457
H1467      H    0.6270964483    1.0206611367    0.1492867198
H1468      H    0.6887253502    1.0505404784    0.1488912138
C1449      C    0.6008980626    0.8164721847    0.2402972506
C1450      C    0.5937454203    0.8139809788    0.2035859300
C1451      C    0.5791721198    0.8417648908    0.1843807595
C1452      C    0.5712256388    0.8732935206    0.2013416385
C1453      C    0.5784667677    0.8758160309    0.2381891139
C1454      C    0.5929926198    0.8478706075    0.2571955237
H1455      H    0.6001155732    0.7895019343    0.1908003118
H1456      H    0.5737906937    0.8393915564    0.1558490849
H1457      H    0.5724541934    0.9000379469    0.2517460460
H1458      H    0.5985809736    0.8493988950    0.2857157111
C1439      C    0.5685314629    0.2374291870    0.8731049275
C1440      C    0.5607115418    0.2191025505    0.8411344333
C1441      C    0.5746922743    0.2311195118    0.8095693390
C1442      C    0.5972110097    0.2621072106    0.8088697514
C1443      C    0.6051109805    0.2804696180    0.8409801051
C1444      C    0.5909619742    0.2682876933    0.8724180183
H1445      H    0.5433550736    0.1951349171    0.8420782039
H1446      H    0.5683509236    0.2165413059    0.7849520740
H1447      H    0.6224884587    0.3045287021    0.8409086253
H1448      H    0.5967203548    0.2823059416    0.8974072199
C1429      C    0.8157208700    0.3706386674    0.6876672043
C1430      C    0.8181720017    0.3954106586    0.7154160337
C1431      C    0.8511481686    0.4102915976    0.7285402702
C1432      C    0.8830873948    0.4008878254    0.7142243753
C1433      C    0.8806185511    0.3760646421    0.6863236047
C1434      C    0.8475240824    0.3612723575    0.6734003320
H1435      H    0.7932662160    0.4025166375    0.7261633878
H1436      H    0.8525699316    0.4295234953    0.7501172400
H1437      H    0.9050927850    0.3684692084    0.6749451241
H1438      H    0.8452321341    0.3419336189    0.6519443842
C1419      C    0.7395641216    0.1120845944    0.5659997031
C1420      C    0.7038625496    0.1184877104    0.5712287644
C1421      C    0.6941730055    0.1511995875    0.5836913766
C1422      C    0.7200483934    0.1789006001    0.5913737129
C1423      C    0.7558833105    0.1724896022    0.5860630733
C1424      C    0.7653391759    0.1396687990    0.5736425583
H1425      H    0.6841273467    0.0968768277    0.5650857592
H1426      H    0.6662897778    0.1557333535    0.5875945426
H1427      H    0.7762652751    0.1936451532    0.5919014676
H1428      H    0.7929591897    0.1342943953    0.5695630004
C1409      C    0.7374416328    0.3841746059    0.8959475305
C1410      C    0.7462668083    0.3490370752    0.9017838953
C1411      C    0.7405748986    0.3233629193    0.8751646455
C1412      C    0.7257883763    0.3320063825    0.8414832903
C1413      C    0.7169880784    0.3672980722    0.8356074374
C1414      C    0.7227207045    0.3927923757    0.8624050428
H1415      H    0.7577726314    0.3427478779    0.9279076863
H1416      H    0.7476024203    0.2961701527    0.8801475818
H1417      H    0.7054923470    0.3744416361    0.8096828418
H1418      H    0.7158970548    0.4201417674    0.8582781920
C1399      C    0.6303810112    0.1464058135    0.7523447919
C1400      C    0.6404658332    0.1142347163    0.7671316752
C1401      C    0.6158908450    0.0853339451    0.7695847410
C1402      C    0.5800894432    0.0875896387    0.7571870859
C1403      C    0.5699825667    0.1198694550    0.7422848520
C1404      C    0.5947295008    0.1486587851    0.7399901312
H1405      H    0.6682466545    0.1128273465    0.7765142493
H1406      H    0.6241853170    0.0605120143    0.7811444959
H1407      H    0.5423572947    0.1220792837    0.7325736829
H1408      H    0.5872476494    0.1738231683    0.7286730511
C1389      C    0.3918334809    0.2617405535    0.1649298397
C1390      C    0.4100798422    0.2849345397    0.1423999272
C1391      C    0.4237298687    0.2728573248    0.1112524031
C1392      C    0.4195315044    0.2368791089    0.1014330476
C1393      C    0.4011571121    0.2136068084    0.1240225018
C1394      C    0.3876427317    0.2259090868    0.1551550624
H1395      H    0.4130404206    0.3126911342    0.1502605963
H1396      H    0.4378357383    0.2912528372    0.0940314276
H1397      H    0.3976862360    0.1856546962    0.1168289434
H1398      H    0.3735186048    0.2081844695    0.1729449454
C1379      C    0.1159220180    0.4007273563    0.3188405739
C1380      C    0.1210004514    0.3741216181    0.2940801015
C1381      C    0.1533464536    0.3576980718    0.2934202943
C1382      C    0.1819645612    0.3673434503    0.3177300094
C1383      C    0.1768413419    0.3940108622    0.3426277687
C1384      C    0.1444158466    0.4103350432    0.3430580883
H1385      H    0.0986214208    0.3668545281    0.2755129671
H1386      H    0.1568369403    0.3370506371    0.2739995111
H1387      H    0.1987342088    0.4018175493    0.3616317295
H1388      H    0.1401378862    0.4310994933    0.3620601293
C1369      C    0.2618715336    0.0978214559    0.4333602872
C1370      C    0.2381193130    0.1251094155    0.4334634627
C1371      C    0.2450275368    0.1569206577    0.4156729850
C1372      C    0.2761567775    0.1625867298    0.3969570437
C1373      C    0.2999700883    0.1351642218    0.3968029903
C1374      C    0.2928727852    0.1034539182    0.4147184606
H1375      H    0.2141118604    0.1203327245    0.4479483322
H1376      H    0.2262681988    0.1778552240    0.4160136224
H1377      H    0.3242162170    0.1391198242    0.3824573226
H1378      H    0.3111259923    0.0820888467    0.4149512149
C1359      C    0.2504088212    0.3913411703    0.0784422160
C1360      C    0.2582652979    0.3565353476    0.0703521890
C1361      C    0.2637087020    0.3314656467    0.0969457582
C1362      C    0.2614143851    0.3403784062    0.1328519696
C1363      C    0.2534640743    0.3753058398    0.1409667561
C1364      C    0.2481161999    0.4002240809    0.1141985604
H1365      H    0.2598547106    0.3499808377    0.0424838153
H1366      H    0.2697808403    0.3045175589    0.0901889322
H1367      H    0.2516092105    0.3826616491    0.1686395796
H1368      H    0.2421063412    0.4273638385    0.1201010496
C1349      C    0.3580740603    0.1388388729    0.2075758943
C1350      C    0.3910564815    0.1348199248    0.2258682590
C1351      C    0.4145050096    0.1100772107    0.2150090650
C1352      C    0.4057476278    0.0883453376    0.1852018947
C1353      C    0.3726611733    0.0924265443    0.1668020843
C1354      C    0.3493473288    0.1172040091    0.1778862079
H1355      H    0.3975287115    0.1518616641    0.2487982935
H1356      H    0.4400483745    0.1073075663    0.2295277006
H1357      H    0.3654479053    0.0757947728    0.1436734473
H1358      H    0.3236141165    0.1205327850    0.1640023920
C1339      C   -0.0772558098    0.2339307601    0.3863359993
C1340      C   -0.1025300266    0.2523648579    0.3661641580
C1341      C   -0.1172068204    0.2391169166    0.3337343157
C1342      C   -0.1070835827    0.2066795450    0.3202530267
C1343      C   -0.0817561409    0.1881441765    0.3405371179
C1344      C   -0.0671729293    0.2016225526    0.3729199218
H1345      H   -0.1101900862    0.2773519055    0.3769505173
H1346      H   -0.1368360989    0.2537845234    0.3183971292
H1347      H   -0.0736012830    0.1629929935    0.3304782152
H1348      H   -0.0474502428    0.1876484479    0.3888047731
C1329      C    0.1303863755    0.2417552992    0.6568744614
C1330      C    0.0978271012    0.2574062266    0.6603862278
C1331      C    0.0731016216    0.2598465024    0.6316332605
C1332      C    0.0800998265    0.2465650878    0.5980988195
C1333      C    0.1127617083    0.2307962458    0.5945914815
C1334      C    0.1373612555    0.2285204549    0.6234821446
H1335      H    0.0927197523    0.2674680044    0.6864805996
H1336      H    0.0479099115    0.2720849786    0.6348308911
H1337      H    0.1186188254    0.2203939673    0.5688021234
H1338      H    0.1627845151    0.2165369259    0.6211125409
C1319      C   -0.1559999074    0.2475398563    0.6308943026
C1320      C   -0.1220522652    0.2358657417    0.6403995637
C1321      C   -0.0950473096    0.2369085051    0.6164292217
C1322      C   -0.1010734661    0.2498173541    0.5818477853
C1323      C   -0.1351375734    0.2615955956    0.5723280131
C1324      C   -0.1620079891    0.2604028337    0.5964582626
H1325      H   -0.1177318569    0.2260503230    0.6672462185
H1326      H   -0.0688019945    0.2277396651    0.6242606074
H1327      H   -0.1402664146    0.2716529039    0.5456455980
H1328      H   -0.1885146763    0.2692774132    0.5894059107
C1309      C    0.1511103509    0.2400214722    0.3606459464
C1310      C    0.1181048494    0.2545715342    0.3528518362
C1311      C    0.0933434944    0.2576193285    0.3787451179
C1312      C    0.1008003477    0.2461811398    0.4136389526
C1313      C    0.1339633850    0.2316317213    0.4214760672
C1314      C    0.1585470560    0.2286330995    0.3953959253
H1315      H    0.1127338200    0.2634006583    0.3258002489
H1316      H    0.0678131656    0.2690082830    0.3722353254
H1317      H    0.1401611458    0.2226216319    0.4483612100
H1318      H    0.1842234064    0.2172940986    0.4010463180
loop_
_geom_bond_atom_site_label_1
_geom_bond_atom_site_label_2
_geom_bond_distance
_geom_bond_site_symmetry_2
_ccdc_geom_bond_type
