data_spn_v1-tricenter_v2-6c_Zr_1_Ch_dummy_1-triedgenobond
_audit_creation_date              2024-12-10
_audit_creation_method            'tobacco_3.0'
_symmetry_space_group_name_H-M    'P1'
_symmetry_Int_Tables_number       1
_symmetry_cell_setting            triclinic
loop_
_symmetry_equiv_pos_as_xyz
  x,y,z
_cell_length_a                    54.02390381700077
_cell_length_b                    53.09007570149302
_cell_length_c                    53.485986809793204
_cell_angle_alpha                 88.87279830725159
_cell_angle_beta                  91.307090733988
_cell_angle_gamma                 88.87758035540733
loop_
_atom_site_label
_atom_site_type_symbol
_atom_site_fract_x
_atom_site_fract_y
_atom_site_fract_z
D67        D    0.7434486742    0.7039390753    0.0416067400
D68        D    0.7191971381    0.7129106910    0.0354994558
D69        D    0.7288566414    0.7360877606    0.0271496721
D70        D    0.7531081775    0.7271161448    0.0332569563
D71        D    0.7323780869    0.7036166398    0.0263799016
D72        D    0.7420375902    0.7267937093    0.0180301179
D73        D    0.7399272287    0.7364101960    0.0423765106
D74        D    0.7302677255    0.7132331265    0.0507262942
Zr1       Zr    0.7349966200    0.7187234072    0.0309454793
D75        D    0.7820363416    0.7843086576   -0.0322285756
D76        D    0.7580678045    0.7944822119   -0.0375816378
D77        D    0.7487865216    0.7808124236   -0.0169823675
D78        D    0.7727550588    0.7706388693   -0.0116293055
D79        D    0.7725652209    0.7996396885   -0.0270504992
D80        D    0.7632839380    0.7859699002   -0.0064512290
D81        D    0.7582576424    0.7654813927   -0.0221604440
D82        D    0.7675389253    0.7791511810   -0.0427597142
Zr13      Zr    0.7650025735    0.7812766051   -0.0309405793
D83        D    0.7477198990    0.7783104742    0.0499371550
D84        D    0.7714421055    0.7710735632    0.0416465134
D85        D    0.7639701157    0.7772927615    0.0167366325
D86        D    0.7402479091    0.7845296725    0.0250272742
D87        D    0.7636835293    0.7871327979    0.0474141581
D88        D    0.7562115396    0.7933519962    0.0225042771
D89        D    0.7480064852    0.7684704377    0.0192596295
D90        D    0.7554784751    0.7622512395    0.0441695104
Zr14      Zr    0.7511874412    0.7823681139    0.0328346286
D91        D    0.7618967913    0.7034449238   -0.0362417873
D92        D    0.7497747306    0.7156585740   -0.0165528260
D93        D    0.7417349985    0.7352073257   -0.0333417070
D94        D    0.7538570591    0.7229936755   -0.0530306683
D95        D    0.7449463740    0.7028656381   -0.0291469851
D96        D    0.7369066419    0.7224143898   -0.0459358661
D97        D    0.7586854157    0.7357866114   -0.0404365092
D98        D    0.7667251478    0.7162378597   -0.0236476282
Zr15      Zr    0.7488123572    0.7176318892   -0.0328334037
D100       D    0.7124175733    0.7486351115   -0.0038454109
D101       D    0.7209285128    0.7735445621   -0.0065116175
D102       D    0.7028364580    0.7784806148   -0.0255975082
D103       D    0.6949137375    0.7551434941   -0.0043276615
D104       D    0.7034246769    0.7800529447   -0.0069938680
D105       D    0.7203402938    0.7719722322   -0.0251152577
D106       D    0.7118293543    0.7470627816   -0.0224490511
D99        D    0.6943255185    0.7535711642   -0.0229313016
Zr16      Zr    0.7065744379    0.7626846218   -0.0109322464
D107       D    0.7795018557    0.7401266349    0.0216857518
D108       D    0.7852505544    0.7370741189   -0.0037531735
D109       D    0.8070265951    0.7233444283    0.0034933075
D110       D    0.8012778964    0.7263969442    0.0289322327
D111       D    0.7756931454    0.7272831224    0.0087972938
D112       D    0.7974691860    0.7135534317    0.0160437747
D113       D    0.8108353054    0.7361879408    0.0163817655
D114       D    0.7890592648    0.7499176314    0.0091352846
Zr31      Zr    0.7934253605    0.7373153812    0.0109334714
H58        H    0.7400272168    0.6842195174    0.0651239552
H66        H    0.7640424122    0.7002935327    0.0660931306
O2         O    0.7530893114    0.6911877200    0.0544395693
H49        H    0.6689453562    0.7913005058   -0.0020945560
H63        H    0.6828759148    0.7859406410    0.0233657344
O18        O    0.6856259782    0.7916846763    0.0059674774
H50        H    0.7748760176    0.8058990863    0.0669710343
H65        H    0.7846924868    0.7780498464    0.0682291563
O33        O    0.7813986170    0.7923117597    0.0563672790
H55        H    0.8328665857    0.7108237236    0.0025106096
H64        H    0.8170754900    0.7115443665   -0.0222010042
O35        O    0.8158299545    0.7081711608   -0.0040454817
H57        H    0.7345446290    0.7972006739   -0.0658513274
H61        H    0.7375580151    0.8190596431   -0.0470619944
O38        O    0.7472819194    0.8069148926   -0.0568489108
H53        H    0.7262040715    0.6957844976   -0.0688804406
H60        H    0.7061176395    0.7030779038   -0.0496560613
O39        O    0.7200087110    0.7101328329   -0.0590701011
H45        H    0.7083500349    0.7147640736   -0.0096455057
O10        O    0.7221029425    0.7261510664   -0.0059997239
H48        H    0.7711105058    0.7416703179    0.0519085036
O11        O    0.7638525233    0.7445760853    0.0349606389
H54        H    0.7714624751    0.6824830160   -0.0557037402
O17        O    0.7777532130    0.6921764317   -0.0413395934
H46        H    0.7303833224    0.8030113631   -0.0064495500
O20        O    0.7372572118    0.7857172518   -0.0042314463
H47        H    0.7899803806    0.7396796790   -0.0365632895
O22        O    0.7767834368    0.7435545326   -0.0247276609
H62        H    0.7110292110    0.8003770916    0.0517444326
O26        O    0.7231549575    0.8090772818    0.0412210272
H59        H    0.8190534134    0.7097508514    0.0436234615
O30        O    0.8016038461    0.7082788815    0.0378650377
H51        H    0.8322374748    0.7501099787    0.0362494113
O34        O    0.8148121798    0.7555587253    0.0385492086
H52        H    0.6669844619    0.7517317226   -0.0359492010
O42        O    0.6842167135    0.7457939336   -0.0386366347
H56        H    0.6984300663    0.8051473544   -0.0350989572
O43        O    0.6957233968    0.7877549553   -0.0407122650
O9         O    0.7232163616    0.7564454705    0.0247288859
O12        O    0.7627425865    0.7142827512    0.0042326713
O19        O    0.7361437928    0.7554228477   -0.0349600562
O21        O    0.7778968558    0.7738489367    0.0060009489
O3         O    0.6941485665    0.7156097124    0.0353069999
O8         O    0.6763271098    0.7431709646    0.0090516991
C23        C    0.6769123822    0.7267394208    0.0250289373
O4         O    0.7296121205    0.7312551375    0.0700942926
O6         O    0.7397617325    0.7711636832    0.0712821308
C25        C    0.7327180150    0.7513664406    0.0797768131
O5         O    0.7363870864    0.6791128715   -0.0220898956
O7         O    0.7277216899    0.6797960162    0.0178996805
C24        C    0.7297479174    0.6703874015   -0.0023661128
O27        O    0.7636127120    0.8208871316    0.0220911206
O28        O    0.7722781085    0.8202039868   -0.0178984555
C29        C    0.7702524859    0.8296125924    0.0023636628
O32        O    0.8058512319    0.7843902907   -0.0353057749
O36        O    0.8236726886    0.7568290385   -0.0090504741
C37        C    0.8230874162    0.7732605822   -0.0250277123
O40        O    0.7703876779    0.7687448656   -0.0700930676
O41        O    0.7602380658    0.7288363199   -0.0712809058
C44        C    0.7672817833    0.7486335625   -0.0797755881
C115       C    0.7150742297    0.5261619638    0.0565956881
H116       H    0.6866620473    0.4985633037    0.0541603267
H117       H    0.6856133012    0.5549950646   -0.0041702600
H118       H    0.7411383328    0.5560585239    0.0541900052
C119       C    0.6944587873    0.5151878103    0.0456532990
C120       C    0.6838549145    0.5255647959    0.0237833982
C121       C    0.6938688571    0.5469169930    0.0128561361
C122       C    0.7144856048    0.5578911684    0.0237998803
C123       C    0.7250881723    0.5475141609    0.0456684260
D190       D    1.0400258807    0.5296267349    0.5368633273
D191       D    1.0346475706    0.5544611020    0.5280341342
D192       D    1.0259882019    0.5449189931    0.5050065460
D193       D    1.0313665119    0.5200846260    0.5138357391
D194       D    1.0252745353    0.5412781466    0.5372325622
D195       D    1.0166151665    0.5317360378    0.5142049740
D196       D    1.0407395473    0.5332675814    0.5046373111
D197       D    1.0493989160    0.5428096902    0.5276648993
Zr124     Zr    1.0296479238    0.5385346736    0.5222227665
D198       D    0.9654082073    0.4925377898    0.4570472885
D199       D    0.9607628024    0.5170677430    0.4470232197
D200       D    0.9814959146    0.5259283460    0.4605978003
D201       D    0.9861413194    0.5013983926    0.4706218691
D202       D    0.9707414651    0.5020680650    0.4418493147
D203       D    0.9914745772    0.5109286680    0.4554238953
D204       D    0.9761626568    0.5163980706    0.4757957742
D205       D    0.9554295446    0.5075374677    0.4622211935
Zr136     Zr    0.9671971123    0.5098114085    0.4601054048
D206       D    1.0478016738    0.5252532928    0.4630101388
D207       D    1.0389307645    0.5013385087    0.4701347982
D208       D    1.0144553248    0.5096019775    0.4640102160
D209       D    1.0233262342    0.5335167616    0.4568855567
D210       D    1.0447941944    0.5091143507    0.4542082725
D211       D    1.0203187546    0.5173778194    0.4480836904
D212       D    1.0174628043    0.5257409197    0.4728120824
D213       D    1.0419382440    0.5174774509    0.4789366644
Zr137     Zr    1.0307463619    0.5221866982    0.4589909293
D214       D    0.9624028066    0.5129121385    0.5373869935
D215       D    0.9821968329    0.5247491737    0.5252753095
D216       D    0.9657170311    0.5334104500    0.5059105444
D217       D    0.9459230048    0.5215734148    0.5180222283
D218       D    0.9699276221    0.5299550679    0.5380034379
D219       D    0.9534478203    0.5386163442    0.5186386728
D220       D    0.9581922156    0.5163675206    0.5052940999
D221       D    0.9746720175    0.5077062443    0.5246588651
Zr138     Zr    0.9660950176    0.5261588653    0.5233372535
D223       D    0.9957205832    0.5624728463    0.4926325934
D224       D    0.9927145888    0.5539537206    0.4678822074
D225       D    0.9743233287    0.5728567893    0.4630558359
D226       D    0.9957257979    0.5802945919    0.4862228724
D227       D    0.9927198036    0.5717754663    0.4614724864
D228       D    0.9743181139    0.5550350437    0.4694655569
D229       D    0.9773241083    0.5635541693    0.4942159429
D222       D    0.9773293231    0.5813759149    0.4878062219
Zr139     Zr    0.9888089231    0.5686333201    0.4787099548
D230       D    1.0190742682    0.4935909843    0.5008558747
D231       D    0.9937307289    0.4884061228    0.5038978604
D232       D    1.0003318713    0.4660463420    0.5174565130
D233       D    1.0256754106    0.4712312035    0.5144145272
D234       D    1.0064839902    0.4977679825    0.5136315767
D235       D    1.0130851326    0.4754082017    0.5271902292
D236       D    1.0129221493    0.4618693439    0.5046808110
D237       D    1.0063210069    0.4842291247    0.4911221584
Zr154     Zr    1.0080324565    0.4797122434    0.5036182280
H181       H    1.0635047905    0.5324391680    0.5564234761
H189       H    1.0636852680    0.5080424512    0.5403952697
O125       O    1.0525097464    0.5194588045    0.5494797961
H172       H    0.9985292809    0.6067238405    0.4504013369
H186       H    1.0233563671    0.5918829211    0.4556534384
O141       O    1.0060213779    0.5895576257    0.4499624907
H173       H    1.0637432938    0.4972718519    0.4355239014
H188       H    1.0648314637    0.4871905317    0.4631410336
O156       O    1.0531158934    0.4908852752    0.4490054437
H178       H    0.9986598002    0.4397741250    0.5298123114
H187       H    0.9746502745    0.4564750487    0.5291703267
O158       O    0.9926799072    0.4572570878    0.5325024394
H180       H    0.9334474597    0.5417266050    0.4444243568
H184       H    0.9518618765    0.5382260920    0.4226943847
O161       O    0.9419427034    0.5285675831    0.4347336087
H176       H    0.9311666642    0.5500298601    0.5451319112
H183       H    0.9507571574    0.5699625738    0.5379284190
O162       O    0.9409952842    0.5561064884    0.5308948174
H168       H    0.9902549871    0.5666745256    0.5262760257
O133       O    0.9934085704    0.5526276369    0.5149276624
H171       H    1.0492392142    0.5013330221    0.4993141202
O134       O    1.0326568685    0.5091620698    0.4964694232
H177       H    0.9429493995    0.5036457949    0.5581906037
O140       O    0.9569428444    0.4968992388    0.5485332721
H169       H    0.9923611192    0.5444151034    0.4386017726
O143       O    0.9944367765    0.5373262628    0.4557478855
H170       H    0.9610917588    0.4844642373    0.5013340184
O145       O    0.9731800147    0.4975787114    0.4975124677
H185       H    1.0505637174    0.5625576707    0.4412083469
O149       O    1.0397474284    0.5505292393    0.4325477949
H182       H    1.0397791555    0.4527356524    0.5308717445
O153       O    1.0345956892    0.4706204334    0.5323901619
H174       H    1.0319022981    0.4396283320    0.4907755017
O157       O    1.0346649092    0.4572947050    0.4854143967
H175       H    0.9652493279    0.6095047207    0.4897262808
O165       O    0.9621108301    0.5920435060    0.4955738708
H179       H    0.9649196509    0.5776516967    0.4366060777
O166       O    0.9595220826    0.5805064751    0.4538863356
O132       O    1.0236613648    0.5507668521    0.4848157151
O135       O    1.0024046030    0.5110193007    0.5265802973
O142       O    0.9641839822    0.5391870476    0.4858598327
O144       O    1.0034328091    0.4957179266    0.4674005204
O126       O    1.0351787303    0.5799349878    0.5254277266
O131       O    1.0095747234    0.5988075407    0.4981476053
C146       C    1.0254548170    0.5977528621    0.5144403632
O127       O    1.0685118183    0.5430139551    0.5097540502
O129       O    1.0692038920    0.5327657617    0.4701043999
C148       C    1.0779142518    0.5396535836    0.4897689329
O128       O    0.9772774190    0.5384112180    0.5616007861
O130       O    1.0171253973    0.5461738187    0.5609032391
C147       C    0.9970430649    0.5446214248    0.5702602379
O150       O    1.0195639605    0.5099343455    0.4207273967
O151       O    0.9797159822    0.5021717448    0.4214249437
C152       C    0.9997946580    0.5037236201    0.4120679564
O155       O    0.9616626492    0.4684105758    0.4569004562
O159       O    0.9872666561    0.4495380228    0.4841805775
C160       C    0.9713865625    0.4505927014    0.4678878196
O163       O    0.9283295612    0.5053316084    0.4725741326
O164       O    0.9276374876    0.5155798018    0.5122237829
C167       C    0.9189271277    0.5086919799    0.4925592499
D304       D    0.9573828061    0.3078756111    0.2433194348
D305       D    0.9623714174    0.2988339421    0.2680043378
D306       D    0.9706336489    0.2755124722    0.2585709374
D307       D    0.9656450377    0.2845541412    0.2338860344
D308       D    0.9720502986    0.3079509849    0.2550637300
D309       D    0.9803125303    0.2846295150    0.2456303296
D310       D    0.9559661564    0.2754370984    0.2468266422
D311       D    0.9477039248    0.2987585683    0.2562600425
Zr238     Zr    0.9673849958    0.2929261129    0.2522423426
D312       D    1.0306752805    0.2262302383    0.2071826726
D313       D    1.0349083144    0.2159997492    0.2315529118
D314       D    1.0143760378    0.2300276550    0.2401339407
D315       D    1.0101430039    0.2402581441    0.2157637014
D316       D    1.0249431722    0.2110068509    0.2165295695
D317       D    1.0044108956    0.2250347567    0.2251105984
D318       D    1.0201081461    0.2452510424    0.2307870437
D319       D    1.0406404227    0.2312231366    0.2222060148
Zr250     Zr    1.0288050221    0.2293043001    0.2243125452
D320       D    0.9480998627    0.2336759122    0.2386612502
D321       D    0.9573228938    0.2407377493    0.2150578840
D322       D    0.9816112134    0.2341041615    0.2235391479
D323       D    0.9723881822    0.2270423244    0.2471425141
D324       D    0.9510598743    0.2247944455    0.2226549891
D325       D    0.9753481940    0.2181608578    0.2311362528
D326       D    0.9786512017    0.2429856282    0.2395454091
D327       D    0.9543628821    0.2496192160    0.2310641452
Zr251     Zr    0.9651037594    0.2293228876    0.2358141622
D328       D    1.0351874523    0.3070131020    0.2276816042
D329       D    1.0150339151    0.2951575043    0.2391504030
D330       D    1.0310438903    0.2753403245    0.2478888045
D331       D    1.0511974274    0.2871959222    0.2364200057
D332       D    1.0275299951    0.3077348792    0.2445050932
D333       D    1.0435399702    0.2879176994    0.2532434947
D334       D    1.0387013475    0.2746185474    0.2310653154
D335       D    1.0226913723    0.2944357272    0.2223269139
Zr252     Zr    1.0310899211    0.2929074710    0.2407402557
D337       D    1.0005084034    0.2624606762    0.2763239592
D338       D    1.0030705188    0.2375064081    0.2678315097
D339       D    1.0212103549    0.2322684319    0.2868011986
D340       D    1.0002204566    0.2559689832    0.2939910076
D341       D    1.0027825719    0.2310147152    0.2854985581
D342       D    1.0214983018    0.2387601248    0.2691341502
D343       D    1.0189361864    0.2637143929    0.2776265996
D336       D    1.0186482395    0.2572227000    0.2952936480
Zr253     Zr    1.0070808668    0.2483036087    0.2824800783
D344       D    0.9778929347    0.2713184023    0.2077044933
D345       D    1.0033533701    0.2739266100    0.2028777897
D346       D    0.9972194080    0.2877467684    0.1806480266
D347       D    0.9717589725    0.2851385606    0.1854747302
D348       D    0.9907198052    0.2839400118    0.2120421638
D349       D    0.9845858431    0.2977601702    0.1898124007
D350       D    0.9843925374    0.2751251589    0.1763103561
D351       D    0.9905264995    0.2613050005    0.1985401192
Zr268     Zr    0.9891128136    0.2739267498    0.1940743396
H295       H    0.9342790747    0.3279931202    0.2458827294
H303       H    0.9339681633    0.3119130320    0.2216206166
O239       O    0.9452421813    0.3208287748    0.2331142621
H286       H    0.9964476056    0.2198994826    0.3200772464
H300       H    0.9718442974    0.2256754653    0.3050615312
O255       O    0.9890869107    0.2196326590    0.3029484854
H287       H    0.9318124896    0.2063577523    0.2106144850
H302       H    0.9313842945    0.2342033616    0.2006797675
O270       O    0.9427787547    0.2197490120    0.2044469189
H292       H    0.9993695733    0.3002124649    0.1546329674
H301       H    1.0232356131    0.2990887142    0.1714984966
O272       O    1.0052617772    0.3027728706    0.1720643939
H294       H    1.0619741234    0.2128278559    0.2563504501
H298       H    1.0431283481    0.1912970181    0.2525859463
O275       O    1.0533833752    0.2032563458    0.2431582789
H290       H    1.0662872225    0.3141557263    0.2649225525
H297       H    1.0463719942    0.3072201244    0.2844428792
O276       O    1.0561068860    0.2999898107    0.2707900006
H282       H    1.0066428652    0.2962218173    0.2806620776
O247       O    1.0033687480    0.2848852906    0.2666490334
H285       H    0.9476190878    0.2703035747    0.2150145884
O248       O    0.9640832257    0.2671179830    0.2229782018
H291       H    1.0551600586    0.3276200056    0.2187860605
O254       O    1.0410159998    0.3181691997    0.2118906089
H283       H    1.0028930787    0.2080424402    0.2582812270
O257       O    1.0012335489    0.2253579301    0.2512725998
H284       H    1.0359848047    0.2707543885    0.1993568308
O259       O    1.0237023601    0.2671005764    0.2122125374
H299       H    0.9445699946    0.2116964394    0.2755828945
O263       O    0.9553105002    0.2028048378    0.2637517665
H296       H    0.9581475772    0.3020062934    0.1669969559
O267       O    0.9632152350    0.3034008312    0.1848138835
H288       H    0.9653007340    0.2615230018    0.1539643212
O271       O    0.9622774676    0.2561380046    0.1714466553
H289       H    1.0305378920    0.2588726057    0.3233623044
O279       O    1.0339456276    0.2647400221    0.3060896319
H293       H    1.0300259219    0.2054568118    0.2915947451
O280       O    1.0357622447    0.2227484249    0.2945459592
O246       O    0.9724913203    0.2551297822    0.2643418805
O249       O    0.9949601316    0.2968724284    0.2252818181
O256       O    1.0321109765    0.2551134385    0.2535797527
O258       O    0.9928249325    0.2373450680    0.2099053845
O240       O    0.9615726712    0.2961642699    0.2932704952
O245       O    0.9864599795    0.2681884238    0.3122302340
C260       C    0.9709222634    0.2848852796    0.3110387417
O241       O    0.9282080774    0.2810774248    0.2561751897
O243       O    0.9267743028    0.2411949492    0.2458766418
C262       C    0.9184130984    0.2611373573    0.2526651286
O242       O    1.0205988223    0.3316082610    0.2528784971
O244       O    0.9806555289    0.3316211934    0.2600932519
C261       C    1.0009540258    0.3406758278    0.2588262305
O264       O    0.9755948582    0.1906220976    0.2236759208
O265       O    1.0155381515    0.1906091652    0.2164611660
C266       C    0.9952433173    0.1815544763    0.2177277174
O269       O    1.0346210092    0.2260660886    0.1832839227
O273       O    1.0097337009    0.2540419348    0.1643241839
C274       C    1.0252714170    0.2373450790    0.1655156762
O277       O    1.0679856030    0.2411529338    0.2203792282
O278       O    1.0694193777    0.2810354094    0.2306777761
C281       C    1.0777805820    0.2610930012    0.2238892893
C352       C    0.9512380828    0.4751008038    0.2803788164
H353       H    0.9535966590    0.4453065166    0.2539396211
H354       H    1.0120768219    0.4468938946    0.3092374926
H355       H    0.9537275211    0.5026482307    0.3091166416
C356       C    0.9621488744    0.4539059867    0.2700604540
C357       C    0.9840453701    0.4437538652    0.2804462178
C358       C    0.9950300969    0.4547981919    0.3011521499
C359       C    0.9841179386    0.4759943065    0.3114705197
C360       C    0.9622228097    0.4861451305    0.3010847485
C361       C    0.9137931927    0.3180770917    0.4393686817
H362       H    0.9160072903    0.3478380754    0.4658613155
H363       H    0.9719732377    0.3468143430    0.4104708300
H364       H    0.9162153342    0.2906052279    0.4105742946
C365       C    0.9242039028    0.3393367365    0.4497109165
C366       C    0.9451435355    0.3496797322    0.4393110534
C367       C    0.9556714721    0.3387614478    0.4185671478
C368       C    0.9452594550    0.3175004949    0.4082249052
C369       C    0.9243211293    0.3071588073    0.4186247762
D436       D    0.4972435642    0.2901613477    0.7905981543
D437       D    0.4732278121    0.2839410965    0.7819870668
D438       D    0.4830217247    0.2764711110    0.7589216201
D439       D    0.5070374769    0.2826913622    0.7675327075
D440       D    0.4870536235    0.2746450639    0.7911299389
D441       D    0.4968475362    0.2671750783    0.7680644921
D442       D    0.4932116655    0.2919873948    0.7583898354
D443       D    0.4834177529    0.2994573803    0.7814552822
Zr370     Zr    0.4891917746    0.2797975497    0.7760741318
D444       D    0.5388525788    0.2191400223    0.7108354604
D445       D    0.5150592611    0.2137245948    0.7010232995
D446       D    0.5048075694    0.2338597188    0.7145698187
D447       D    0.5286008871    0.2392751463    0.7243819795
D448       D    0.5288714803    0.2247297959    0.6956826980
D449       D    0.5186197886    0.2448649198    0.7092292172
D450       D    0.5147886679    0.2282699453    0.7297225810
D451       D    0.5250403597    0.2081348212    0.7161760618
Zr382     Zr    0.5218012437    0.2200701706    0.7140205923
D452       D    0.4999624821    0.3011482097    0.7166564176
D453       D    0.5242451072    0.2929201315    0.7236387571
D454       D    0.5181087884    0.2679311004    0.7176958569
D455       D    0.4938261633    0.2761591787    0.7107135175
D456       D    0.5159312070    0.2991549200    0.7077410012
D457       D    0.5097948883    0.2741658890    0.7017981011
D458       D    0.5021400634    0.2699243901    0.7266112734
D459       D    0.5082763822    0.2949134211    0.7325541735
Zr383     Zr    0.5043440399    0.2841172082    0.7126949052
D460       D    0.5201242202    0.2120340677    0.7913671256
D461       D    0.5067117657    0.2320896234    0.7792493683
D462       D    0.4993525430    0.2157236814    0.7600276853
D463       D    0.5127649976    0.1956681257    0.7721454426
D464       D    0.5027896753    0.2188966486    0.7920804604
D465       D    0.4954304527    0.2025307066    0.7728587774
D466       D    0.5166870879    0.2088611004    0.7593143505
D467       D    0.5240463105    0.2252270424    0.7785360335
Zr384     Zr    0.5066497925    0.2157468203    0.7773998442
D469       D    0.4681802102    0.2454306877    0.7468285754
D470       D    0.4764773031    0.2437254455    0.7220205646
D471       D    0.4594149288    0.2243932816    0.7174298560
D472       D    0.4506222536    0.2448956358    0.7405566446
D473       D    0.4589193466    0.2431903937    0.7157486338
D474       D    0.4769728853    0.2249283334    0.7237017868
D475       D    0.4686757923    0.2266335756    0.7485097976
D468       D    0.4511178358    0.2260985238    0.7422378668
Zr385     Zr    0.4625423129    0.2386818266    0.7329843862
D476       D    0.5338842366    0.2718902625    0.7544023814
D477       D    0.5411233372    0.2462575021    0.7575272367
D478       D    0.5626691299    0.2534246668    0.7708822721
D479       D    0.5554300293    0.2790574273    0.7677574168
D480       D    0.5309985799    0.2584149817    0.7672745720
D481       D    0.5525443726    0.2655821465    0.7806296075
D482       D    0.5655547865    0.2668999476    0.7580100815
D483       D    0.5440089938    0.2597327829    0.7446550461
Zr400     Zr    0.5484515195    0.2611822019    0.7571103631
H427       H    0.4927685740    0.3131197063    0.8100710407
H435       H    0.5164793024    0.3150146522    0.7938476834
O371       O    0.5063299173    0.3027995932    0.8030775847
H418       H    0.4240226466    0.2479732960    0.7049199535
H432       H    0.4365691639    0.2736458423    0.7099370738
O387       O    0.4402262512    0.2563633314    0.7043105913
H419       H    0.5257296588    0.3196614447    0.6888681161
H434       H    0.5358697377    0.3201323394    0.7164074550
O402       O    0.5330484769    0.3086215475    0.7023542554
H424       H    0.5887277090    0.2524088440    0.7830436611
H433       H    0.5743463031    0.2273035103    0.7826482786
O404       O    0.5721152553    0.2454526107    0.7858999690
H426       H    0.4931252548    0.1849844746    0.6987487871
H430       H    0.4947494847    0.2046967223    0.6768973879
O407       O    0.5051999295    0.1945780743    0.6889118851
H422       H    0.4864283119    0.1783525504    0.7995550778
H429       H    0.4651546914    0.1976494709    0.7924108725
O408       O    0.4794707437    0.1886244236    0.7853146611
H414       H    0.4649355239    0.2383738012    0.7805389222
O379       O    0.4783063365    0.2426457590    0.7690629523
H417       H    0.5237534068    0.3022482217    0.7527747379
O380       O    0.5174248598    0.2851677222    0.7500708576
H423       H    0.5310955390    0.1918697364    0.8121972174
O386       O    0.5364228342    0.2067622723    0.8024172304
H415       H    0.4854962142    0.2449374176    0.6926606706
O389       O    0.4924885918    0.2466888091    0.7097452223
H416       H    0.5476828160    0.2133785473    0.7550900277
O391       O    0.5337644489    0.2252250297    0.7513115701
H431       H    0.4628759851    0.3031513985    0.6951278291
O395       O    0.4754674462    0.2930378630    0.6864236857
H428       H    0.5725958051    0.2935604899    0.7840055474
O399       O    0.5555081752    0.2874413313    0.7856891635
H420       H    0.5856079455    0.2877125705    0.7438359316
O403       O    0.5679851649    0.2899442769    0.7385982906
H421       H    0.4245649258    0.2125031992    0.7444366555
O411       O    0.4420239649    0.2098614940    0.7501643146
H425       H    0.4551681630    0.2156645797    0.6910571036
O412       O    0.4530346904    0.2093778236    0.7083897154
O378       O    0.4772293835    0.2746389988    0.7387831792
O381       O    0.5185052406    0.2531752194    0.7803495270
O388       O    0.4935655449    0.2146955692    0.7400249954
O390       O    0.5326874959    0.2572182696    0.7210317970
O372       O    0.4481689704    0.2834514042    0.7795765618
O377       O    0.4314589292    0.2576737990    0.7525616991
C392       C    0.4313702188    0.2732131072    0.7687730239
O373       O    0.4813980254    0.3195649486    0.7634494402
O375       O    0.4908962260    0.3222768210    0.7237073752
C394       C    0.4836591616    0.3300482732    0.7433880164
O374       O    0.4941772170    0.2250622823    0.8157136501
O376       O    0.4832281181    0.2652222202    0.8148836869
C393       C    0.4865442595    0.2445249762    0.8243278998
O396       O    0.5168166154    0.2748017462    0.6743810992
O397       O    0.5277657143    0.2346418083    0.6752110625
C398       C    0.5244503869    0.2553353605    0.6657668747
O401       O    0.5628248620    0.2164126244    0.7105181875
O405       O    0.5795349032    0.2421902295    0.7375330502
C406       C    0.5796236135    0.2266509214    0.7213217254
O409       O    0.5295958069    0.1802990799    0.7266453091
O410       O    0.5200976064    0.1775872075    0.7663873741
C413       C    0.5273346708    0.1698157553    0.7467067329
D550       D    0.2890732052    0.4960445837    0.7778719984
D551       D    0.2816168057    0.4714719150    0.7718252229
D552       D    0.2583750296    0.4812698615    0.7631670696
D553       D    0.2658314291    0.5058425303    0.7692138449
D554       D    0.2900915458    0.4853650669    0.7627218064
D555       D    0.2668497697    0.4951630135    0.7540636529
D556       D    0.2573566890    0.4919493784    0.7783172616
D557       D    0.2805984651    0.4821514319    0.7869754149
Zr484     Zr    0.2750768902    0.4876306363    0.7671085048
D558       D    0.2084966642    0.5369028485    0.7029412795
D559       D    0.1998390338    0.5125715553    0.6976339583
D560       D    0.2136390529    0.5025520755    0.7184357933
D561       D    0.2222966832    0.5268833688    0.7237431145
D562       D    0.1939147818    0.5268432322    0.7080155010
D563       D    0.2077148009    0.5168237524    0.7288173359
D564       D    0.2282209352    0.5126116919    0.7133615719
D565       D    0.2144209161    0.5226311717    0.6925597368
Zr496     Zr    0.2123930750    0.5195709773    0.7043706950
D566       D    0.2157165383    0.4989657797    0.7853791129
D567       D    0.2215917399    0.5235202967    0.7770149233
D568       D    0.2160507972    0.5167714439    0.7520901307
D569       D    0.2101755957    0.4922169270    0.7604543205
D570       D    0.2061974482    0.5151696124    0.7826598659
D571       D    0.2006565056    0.5084207598    0.7577350734
D572       D    0.2255698874    0.5005676112    0.7548093778
D573       D    0.2311108300    0.5073164639    0.7797341703
Zr497     Zr    0.2116535373    0.5030815741    0.7682134955
D574       D    0.2890662659    0.5177720030    0.6999218481
D575       D    0.2775961823    0.5045116131    0.7195551413
D576       D    0.2589365795    0.4966785862    0.7026113686
D577       D    0.2704066632    0.5099389761    0.6829780754
D578       D    0.2905102393    0.5002681126    0.7071304776
D579       D    0.2718506366    0.4924350857    0.6901867050
D580       D    0.2574926061    0.5141824766    0.6954027391
D581       D    0.2761522089    0.5220155035    0.7123465117
Zr498     Zr    0.2758164281    0.5041207943    0.7032620261
D583       D    0.2471439662    0.4655355133    0.7321478345
D584       D    0.2222252996    0.4739236392    0.7291612802
D585       D    0.2184841197    0.4561693533    0.7101414265
D586       D    0.2417040535    0.4476504859    0.7317083307
D587       D    0.2167853869    0.4560386118    0.7287217765
D588       D    0.2239240324    0.4740543807    0.7105809302
D589       D    0.2488426991    0.4656662547    0.7135674845
D582       D    0.2434027864    0.4477812273    0.7131279808
Zr499     Zr    0.2337043767    0.4596509318    0.7249493695
D590       D    0.2516898561    0.5329375278    0.7573360894
D591       D    0.2545432369    0.5397960508    0.7318966418
D592       D    0.2668015321    0.5618781009    0.7391491612
D593       D    0.2639481513    0.5550195779    0.7645886088
D594       D    0.2646001115    0.5297432143    0.7446111729
D595       D    0.2768584066    0.5518252644    0.7518636923
D596       D    0.2538912767    0.5650724144    0.7518740777
D597       D    0.2416329816    0.5429903643    0.7446215582
Zr514     Zr    0.2537655887    0.5475514366    0.7465261521
H541       H    0.3084794881    0.4919656401    0.8016184283
H549       H    0.2913750810    0.5161197071    0.8022617343
O485       O    0.3009932812    0.5055549983    0.7907773994
H532       H    0.2075766492    0.4206099579    0.7337212428
H546       H    0.2119186364    0.4338953290    0.7591457742
O501       O    0.2062396884    0.4372673410    0.7416710493
H533       H    0.1870230126    0.5255341399    0.8019415988
H548       H    0.2138430751    0.5358873980    0.8034341854
O516       O    0.2000875359    0.5327741146    0.7914427626
H538       H    0.2777050466    0.5883884962    0.7381347302
H547       H    0.2780173159    0.5732511370    0.7135202671
O518       O    0.2812801821    0.5713456150    0.7317171673
H540       H    0.1986320423    0.4896736869    0.6694901638
H544       H    0.1768686499    0.4917007919    0.6880238571
O521       O    0.1883364826    0.5021449280    0.6783058011
H536       H    0.2987466402    0.4828145894    0.6675986546
H543       H    0.2925466411    0.4615430884    0.6868710711
O522       O    0.2849218396    0.4759262706    0.6772939612
H528       H    0.2806813701    0.4621222397    0.7267365959
O493       O    0.2687222191    0.4758049311    0.7301719951
H531       H    0.2504311858    0.5232316856    0.7875917302
O494       O    0.2480818661    0.5164478675    0.7706618246
H537       H    0.3092689754    0.5285535361    0.6806253996
O500       O    0.2993091078    0.5342637223    0.6948435368
H529       H    0.1927598487    0.4831005684    0.7288478522
O503       O    0.2093631470    0.4902667408    0.7312063586
H530       H    0.2519412563    0.5458134243    0.6990331528
O505       O    0.2487739435    0.5318816953    0.7109102566
H545       H    0.1960185436    0.4612436674    0.7871855666
O509       O    0.1868804983    0.4738485871    0.7764929907
H542       H    0.2792404579    0.5727929957    0.7793416003
O513       O    0.2816728771    0.5552821963    0.7737116205
H534       H    0.2389193382    0.5858834586    0.7714528412
O517       O    0.2344980126    0.5679885806    0.7738057981
H535       H    0.2467814792    0.4204888277    0.7003069296
O525       O    0.2516963226    0.4382093151    0.6975728564
H539       H    0.1925858364    0.4516499951    0.7003846672
O526       O    0.2098577837    0.4493685574    0.6949753801
O492       O    0.2386960219    0.4753206731    0.7605652650
O495       O    0.2781068185    0.5169356276    0.7402691630
O502       O    0.2393893442    0.4907509987    0.7008130887
O504       O    0.2187477463    0.5313974373    0.7413035265
O486       O    0.2803277813    0.4459575009    0.7717645480
O491       O    0.2543896295    0.4284134238    0.7453328338
C506       C    0.2703970790    0.4286475027    0.7614795657
O487       O    0.2628005173    0.4804813361    0.8061522120
O489       O    0.2230309070    0.4901668300    0.8068483599
C508       C    0.2428088736    0.4829740373    0.8155985049
O488       O    0.3142663097    0.4916470102    0.7144952235
O490       O    0.3138039927    0.4813047114    0.7545272141
C507       C    0.3230706641    0.4842748695    0.7343519269
O510       O    0.1732036557    0.5155553582    0.7569802982
O511       O    0.1736659727    0.5258976570    0.7169483075
C512       C    0.1643993017    0.5229282538    0.7371199165
O515       O    0.2071421842    0.5612448675    0.6997109737
O519       O    0.2330803359    0.5787889446    0.7261426879
C520       C    0.2170728864    0.5785548657    0.7099959559
O523       O    0.2246694481    0.5267210323    0.6653233096
O524       O    0.2644390584    0.5170355384    0.6646271617
C527       C    0.2446610919    0.5242283311    0.6558770167
C598       C    0.2935678330    0.2948941046    0.8029493512
H599       H    0.3235856976    0.2678836478    0.8018380085
H600       H    0.3217618005    0.3248010050    0.7439600854
H601       H    0.2657958393    0.3242867259    0.7993599809
C602       C    0.3148863157    0.2844197063    0.7930311504
C603       C    0.3250337970    0.2951827292    0.7718002919
C604       C    0.3138611254    0.3164219725    0.7604885594
C605       C    0.2925413399    0.3268963690    0.7704080586
C606       C    0.2823951614    0.3161333479    0.7916376186
C607       C    0.4628083446    0.4729429680    0.8012069086
H608       H    0.4329385995    0.5001751202    0.7983323270
H609       H    0.4344459582    0.4447381093    0.7412968374
H610       H    0.4904188040    0.4434642775    0.7993074254
C611       C    0.4415466056    0.4838101540    0.7901523069
C612       C    0.4313385129    0.4736597151    0.7685900221
C613       C    0.4423938195    0.4526402333    0.7580833667
C614       C    0.4636568615    0.4417730071    0.7691393277
C615       C    0.4738636512    0.4519234861    0.7907002532
D682       D    0.2015272443    0.7179538718    0.4970691450
D683       D    0.2096406292    0.7236130485    0.5216120420
D684       D    0.2327720146    0.7309789792    0.5123449794
D685       D    0.2246586297    0.7253198026    0.4878020824
D686       D    0.2009739305    0.7332720553    0.5076426241
D687       D    0.2241053159    0.7406379861    0.4983755615
D688       D    0.2333253284    0.7156607957    0.5017715003
D689       D    0.2101939431    0.7082948649    0.5110385628
Zr616     Zr    0.2158697166    0.7279804510    0.5056970879
D690       D    0.2822007180    0.7887216719    0.4580731047
D691       D    0.2914988853    0.7935662393    0.4824008979
D692       D    0.2776390929    0.7734213638    0.4920847295
D693       D    0.2683409256    0.7685767965    0.4677569362
D694       D    0.2969412197    0.7827645550    0.4683564078
D695       D    0.2830814273    0.7626196796    0.4780402393
D696       D    0.2628985912    0.7793784807    0.4818014264
D697       D    0.2767583837    0.7995233562    0.4721175948
Zr628     Zr    0.2786887009    0.7875112143    0.4752038307
D698       D    0.2746914789    0.7061254051    0.4956447594
D699       D    0.2683647489    0.7148872424    0.4711427656
D700       D    0.2744169016    0.7396670838    0.4779392424
D701       D    0.2807436316    0.7309052464    0.5024412363
D702       D    0.2838695134    0.7083078625    0.4797459947
D703       D    0.2899216661    0.7330877039    0.4865424715
D704       D    0.2652388670    0.7374846263    0.4938380072
D705       D    0.2591867144    0.7127047850    0.4870415304
Zr629     Zr    0.2789022890    0.7231756176    0.4916293511
D706       D    0.2021389874    0.7964525552    0.4754493694
D707       D    0.2136354881    0.7760147614    0.4888570803
D708       D    0.2327146996    0.7919939957    0.4969979987
D709       D    0.2212181989    0.8124317895    0.4835902878
D710       D    0.2010004607    0.7892793074    0.4928036166
D711       D    0.2200796723    0.8052585417    0.5009445350
D712       D    0.2338532263    0.7991672435    0.4796437515
D713       D    0.2147740147    0.7831880092    0.4715028330
Zr630     Zr    0.2156561630    0.7923197518    0.4892708157
D715       D    0.2448091779    0.7615666113    0.5281731251
D716       D    0.2695690660    0.7631234199    0.5203429175
D717       D    0.2739941502    0.7820627380    0.5380336934
D718       D    0.2506708023    0.7616952075    0.5460391690
D719       D    0.2754306904    0.7632520159    0.5382089614
D720       D    0.2681325258    0.7819341420    0.5201676495
D721       D    0.2433726377    0.7803773334    0.5279978571
D714       D    0.2492342621    0.7805059295    0.5458639010
Zr631     Zr    0.2584853056    0.7680349600    0.5342807981
D722       D    0.2383348223    0.7364551839    0.4611770919
D723       D    0.2356849119    0.7622398180    0.4542947622
D724       D    0.2228116151    0.7556460715    0.4321291099
D725       D    0.2254615254    0.7298614374    0.4390114396
D726       D    0.2256834285    0.7500217428    0.4640818320
D727       D    0.2128101317    0.7434279963    0.4419161796
D728       D    0.2354630088    0.7420795126    0.4292243698
D729       D    0.2483363056    0.7486732591    0.4513900222
Zr646     Zr    0.2360731464    0.7474604095    0.4466193687
H673       H    0.1818821250    0.6951688975    0.5007442560
H681       H    0.1984105061    0.6935225924    0.4771062786
O617       O    0.1892044413    0.7056492750    0.4873955279
H664       H    0.2853915026    0.7576862856    0.5735721742
H678       H    0.2803785925    0.7323325115    0.5603102493
O633       O    0.2862267038    0.7496001091    0.5570655295
H665       H    0.3025230750    0.6877726300    0.4698519471
H680       H    0.2754468470    0.6878284027    0.4590356622
O648       O    0.2894425933    0.6991048824    0.4623952427
H670       H    0.2113074283    0.7572983802    0.4055888673
H679       H    0.2116987897    0.7821073843    0.4205966893
O650       O    0.2082217245    0.7639717312    0.4224343027
H672       H    0.2936402795    0.8218422465    0.5051420739
H676       H    0.3150871156    0.8019108783    0.5035773303
O653       O    0.3035171583    0.8123634865    0.4929718683
H668       H    0.1937361608    0.8295726304    0.5099429692
H675       H    0.2001556331    0.8098059802    0.5311986116
O654       O    0.2075799991    0.8190053168    0.5170652874
H660       H    0.2114363735    0.7689677976    0.5308860200
O625       O    0.2230249099    0.7648104185    0.5175430915
H663       H    0.2393880962    0.7059134261    0.4708573579
O626       O    0.2421362402    0.7228274612    0.4776294357
H669       H    0.1819648857    0.8170595139    0.4643278532
O632       O    0.1915866845    0.8021604640    0.4588669599
H661       H    0.2988181807    0.7617235400    0.5118223785
O635       O    0.2820182178    0.7603133034    0.5043758521
H662       H    0.2386144906    0.7951837904    0.4483524390
O637       O    0.2419363819    0.7830402414    0.4622554062
H677       H    0.2952380168    0.7031653611    0.5334934676
O641       O    0.3042326027    0.7134002686    0.5211553645
H674       H    0.2095484208    0.7158912202    0.4210673696
O645       O    0.2076048398    0.7217049943    0.4384007813
H666       H    0.2496674225    0.7214882010    0.4088743580
O649       O    0.2544711278    0.7188638255    0.4267314638
H667       H    0.2466750488    0.7936180945    0.5728856168
O657       O    0.2413874383    0.7966550211    0.5551915231
H671       H    0.3001306771    0.7903824765    0.5430342190
O658       O    0.2829930791    0.7968352385    0.5449496083
O624       O    0.2526220701    0.7324551280    0.5186447607
O627       O    0.2125402343    0.7551820660    0.4765243147
O634       O    0.2524210576    0.7926685939    0.5032741830
O636       O    0.2715335421    0.7506849509    0.4633570754
O618       O    0.2115247187    0.7236026791    0.5469699226
O623       O    0.2382422687    0.7487149186    0.5648926584
C638       C    0.2220030046    0.7333851180    0.5643490848
O619       O    0.2277532542    0.6879470538    0.5130654546
O621       O    0.2672778495    0.6849308970    0.5042472773
C640       C    0.2475474406    0.6772704440    0.5109973358
O620       O    0.1773459172    0.7832457009    0.5008911378
O622       O    0.1774785080    0.7429047893    0.5111933315
C639       C    0.1684323936    0.7637616428    0.5080461706
O642       O    0.3172125348    0.7322496685    0.4800090291
O643       O    0.3170799440    0.7725905801    0.4697068353
C644       C    0.3261260930    0.7517374309    0.4728532445
O647       O    0.2830337334    0.7918926904    0.4339302443
O651       O    0.2563161834    0.7667804509    0.4160075084
C652       C    0.2725554474    0.7821102514    0.4165510820
O655       O    0.2668051978    0.8275483157    0.4678347123
O656       O    0.2272806026    0.8305644724    0.4766528896
C659       C    0.2470110115    0.8382249254    0.4699028311
D796       D    0.5447297361    0.7101525542    0.2400745989
D797       D    0.5369394049    0.7172591257    0.2154722206
D798       D    0.5137777912    0.7253828534    0.2245092906
D799       D    0.5215681224    0.7182762820    0.2491116690
D800       D    0.5455448525    0.7258882550    0.2295635905
D801       D    0.5223832388    0.7340119828    0.2386006606
D802       D    0.5129626748    0.7096471526    0.2350202991
D803       D    0.5361242885    0.7015234249    0.2259832291
Zr730     Zr    0.5305779649    0.7212588890    0.2313282413
D804       D    0.4643075271    0.7832652334    0.2784201299
D805       D    0.4553223435    0.7896074227    0.2540170984
D806       D    0.4690954959    0.7691891451    0.2444188532
D807       D    0.4780806794    0.7628469559    0.2688218849
D808       D    0.4496234758    0.7784831237    0.2679600491
D809       D    0.4633966282    0.7580648462    0.2583618040
D810       D    0.4837795471    0.7739712548    0.2548789341
D811       D    0.4700063947    0.7943895324    0.2644771793
Zr742     Zr    0.4679954280    0.7826087605    0.2613300448
D812       D    0.4714403394    0.7019184219    0.2406620838
D813       D    0.4775820368    0.7093192969    0.2652534629
D814       D    0.4718408297    0.7346826651    0.2584785125
D815       D    0.4656991323    0.7272817901    0.2338871334
D816       D    0.4621094269    0.7038817741    0.2564623689
D817       D    0.4563682198    0.7292451424    0.2496874186
D818       D    0.4811717423    0.7327193128    0.2426782273
D819       D    0.4869129493    0.7073559447    0.2494531777
Zr743     Zr    0.4673483085    0.7190026419    0.2446884609
D820       D    0.5446297201    0.7877375518    0.2619479075
D821       D    0.5330856754    0.7684502996    0.2483503793
D822       D    0.5142487947    0.7857231098    0.2400596915
D823       D    0.5257928394    0.8050103620    0.2536572198
D824       D    0.5458898310    0.7812480972    0.2445881732
D825       D    0.5270529503    0.7985209074    0.2362974855
D826       D    0.5129886838    0.7922125644    0.2574194259
D827       D    0.5318255645    0.7749397542    0.2657101136
Zr744     Zr    0.5312250769    0.7848686805    0.2479705889
D829       D    0.5022061052    0.7572351734    0.2086608966
D830       D    0.4773764074    0.7596939859    0.2162240793
D831       D    0.4733258028    0.7796009726    0.1985567355
D832       D    0.4965415947    0.7584164183    0.1907383871
D833       D    0.4717118969    0.7608752307    0.1983015698
D834       D    0.4789903133    0.7784197278    0.2164792449
D835       D    0.5038200111    0.7759609154    0.2089160622
D828       D    0.4981555006    0.7771421601    0.1909935528
Zr745     Zr    0.4886591273    0.7646438947    0.2024289198
D836       D    0.5077071589    0.7289578847    0.2756157515
D837       D    0.5105274321    0.7543094513    0.2826124562
D838       D    0.5230945862    0.7461322025    0.3048870853
D839       D    0.5202743130    0.7207806359    0.2978903807
D840       D    0.5205191521    0.7420124584    0.2728961528
D841       D    0.5330863062    0.7338352096    0.2951707820
D842       D    0.5102825930    0.7330776287    0.3076066841
D843       D    0.4977154389    0.7412548775    0.2853320549
Zr760     Zr    0.5099142582    0.7392274277    0.2902301301
H787       H    0.5641969952    0.6865506201    0.2365366718
H795       H    0.5473948108    0.6847239294    0.2599801444
O731       O    0.5568287572    0.6968252086    0.2498364674
H778       H    0.4620856783    0.7573129537    0.1628245405
H792       H    0.4667114205    0.7311526027    0.1760491888
O747       O    0.4609926720    0.7485686414    0.1792881059
H779       H    0.4431525556    0.6838628458    0.2660794643
H794       H    0.4701096903    0.6821071474    0.2771863289
O762       O    0.4562588590    0.6942215339    0.2737143580
H784       H    0.5343234100    0.7460806481    0.3315479356
H793       H    0.5343329368    0.7715400432    0.3166264716
O764       O    0.5376570594    0.7533146761    0.3147653590
H786       H    0.4536996490    0.8189491199    0.2313580700
H790       H    0.4320465880    0.8000276622    0.2326207385
O767       O    0.4435995680    0.8094483887    0.2433837405
H782       H    0.5537256559    0.8218956457    0.2276722375
H789       H    0.5473507495    0.8033598726    0.2062873152
O768       O    0.5398596612    0.8123255272    0.2203659140
H774       H    0.5356777160    0.7630840185    0.2063373942
O739       O    0.5239039473    0.7589385418    0.2195349183
H777       H    0.5064687331    0.6988900352    0.2658232827
O740       O    0.5039561271    0.7162241108    0.2590817605
H783       H    0.5648776311    0.8068581323    0.2733550942
O746       O    0.5550544060    0.7922115293    0.2786582640
H775       H    0.4480219309    0.7593916900    0.2244183807
O749       O    0.4647261724    0.7568266516    0.2320399788
H776       H    0.5078470137    0.7871365770    0.2886333071
O751       O    0.5045617227    0.7757541152    0.2746580066
H791       H    0.4512809190    0.7015950583    0.2025942716
O755       O    0.4422492106    0.7117507078    0.2148647992
H788       H    0.5358570373    0.7052571210    0.3159528863
O759       O    0.5380457619    0.7117095988    0.2986671563
H780       H    0.4956596485    0.7123357235    0.3277239367
O763       O    0.4910266650    0.7107116744    0.3098124543
H781       H    0.5011355012    0.7912722603    0.1640548976
O771       O    0.5062580871    0.7932915191    0.1818101056
H785       H    0.4473245014    0.7894352408    0.1933022663
O772       O    0.4645438433    0.7951122438    0.1915961093
O738       O    0.4940116627    0.7281172072    0.2180010433
O741       O    0.5338472131    0.7470446707    0.2606190711
O748       O    0.4946184569    0.7876479862    0.2335738538
O750       O    0.4746694382    0.7449327806    0.2731241316
O732       O    0.5353329644    0.7184217109    0.1901035438
O737       O    0.5090522671    0.7456220833    0.1719829397
C752       C    0.5251387068    0.7294634848    0.1726505269
O733       O    0.5183939391    0.6821444625    0.2236965060
O735       O    0.4787457639    0.6807265263    0.2320710244
C754       C    0.4984761815    0.6723710005    0.2255119882
O734       O    0.5695743669    0.7743799853    0.2367404396
O736       O    0.5691699652    0.7344965353    0.2263027813
C753       C    0.5783800781    0.7547615693    0.2296184760
O756       O    0.4289990186    0.7294913370    0.2559186102
O757       O    0.4294034202    0.7693747871    0.2663562685
C758       C    0.4201933000    0.7491134258    0.2630413375
O761       O    0.4632404211    0.7854496115    0.3025555060
O765       O    0.4895211183    0.7582492391    0.3206761101
C766       C    0.4734346787    0.7744078375    0.3200085230
O769       O    0.4801794463    0.8217268599    0.2689625438
O770       O    0.5198276215    0.8231447961    0.2605880255
C773       C    0.5000972039    0.8315003219    0.2671470616
C844       C    0.2859664478    0.8139066674    0.2633754953
H845       H    0.3152768750    0.8111940423    0.2370829647
H846       H    0.3158305535    0.7544406168    0.2950914607
H847       H    0.2590361928    0.8118818632    0.2921956206
C848       C    0.3071504203    0.8030131869    0.2535898535
C849       C    0.3178994026    0.7816111381    0.2650044204
C850       C    0.3074620024    0.7711027988    0.2862055888
C851       C    0.2862766954    0.7819976125    0.2959911601
C852       C    0.2755290477    0.8033983280    0.2845766637
C853       C    0.2006948497    0.6805193957    0.7078165170
H854       H    0.1716402713    0.6830869041    0.7344082839
H855       H    0.1720945025    0.7416525941    0.6782466572
H856       H    0.2274712102    0.6828233926    0.6788694427
C857       C    0.1798539310    0.6915940466    0.7181086160
C858       C    0.1695602168    0.7135965334    0.7074668907
C859       C    0.1801090177    0.7245233590    0.6865312647
C860       C    0.2009512251    0.7134473298    0.6762391701
C861       C    0.2112436505    0.6914462213    0.6868808911
C862       C    0.4302152614    0.7801386097    0.4725185249
H863       H    0.4330899076    0.7530019344    0.4434559032
H864       H    0.4889642238    0.8090724361    0.4450119535
H865       H    0.4320209274    0.8095812260    0.4993887675
C866       C    0.4410868639    0.7694400654    0.4518452824
C867       C    0.4622308367    0.7798533153    0.4419447799
C868       C    0.4725029626    0.8009661296    0.4527199264
C869       C    0.4616300382    0.8116646827    0.4733944475
C870       C    0.4404873872    0.8012514240    0.4832936715
D937       D    0.9849822152    0.8035740421    0.7857006945
D938       D    0.9608369007    0.7987810061    0.7764419716
D939       D    0.9707319842    0.7913449170    0.7534105724
D940       D    0.9948772986    0.7961379529    0.7626692954
D941       D    0.9740262211    0.7886089657    0.7856428576
D942       D    0.9839213046    0.7811728766    0.7626114584
D943       D    0.9816879782    0.8063099934    0.7534684094
D944       D    0.9717928949    0.8137460825    0.7764998085
Zr871     Zr    0.9767184790    0.7939699336    0.7707641488
D945       D    1.0247416715    0.7324103836    0.7051194969
D946       D    1.0008821627    0.7284350091    0.6946844750
D947       D    0.9913375026    0.7487321384    0.7084996910
D948       D    1.0151970115    0.7527075129    0.7189347129
D949       D    1.0153377802    0.7388245741    0.6899018014
D950       D    1.0057931201    0.7591217033    0.7037170174
D951       D    1.0007413940    0.7423179480    0.7237173865
D952       D    1.0102860541    0.7220208186    0.7099021705
Zr883     Zr    1.0076712532    0.7341329121    0.7079701243
D953       D    0.9897254651    0.8160219888    0.7121186760
D954       D    1.0134672213    0.8064317112    0.7194040632
D955       D    1.0062342580    0.7819589606    0.7127291379
D956       D    0.9824925017    0.7915492383    0.7054437508
D957       D    1.0057769497    0.8134208368    0.7034921688
D958       D    0.9985439865    0.7889480862    0.6968172436
D959       D    0.9901827733    0.7845601127    0.7213556451
D960       D    0.9974157367    0.8090328632    0.7280305703
Zr884     Zr    0.9933579246    0.7989062618    0.7078367795
D961       D    1.0040449433    0.7244990153    0.7850486731
D962       D    0.9918526119    0.7454434985    0.7731443234
D963       D    0.9840839409    0.7299234544    0.7533810634
D964       D    0.9962762723    0.7089789712    0.7652854130
D965       D    0.9870298555    0.7322053883    0.7855669050
D966       D    0.9792611845    0.7166853442    0.7658036449
D967       D    1.0010990288    0.7222170814    0.7528628315
D968       D    1.0088676997    0.7377371255    0.7726260915
Zr885     Zr    0.9910324416    0.7291928611    0.7708974460
D970       D    0.9546230799    0.7614161386    0.7402600085
D971       D    0.9633370181    0.7598422033    0.7155957121
D972       D    0.9454259734    0.7415343242    0.7101819009
D973       D    0.9371652286    0.7619121672    0.7336120441
D974       D    0.9458791668    0.7603382320    0.7089477477
D975       D    0.9628838246    0.7410382955    0.7168298653
D976       D    0.9541698864    0.7426122308    0.7414941617
D969       D    0.9367120351    0.7431082595    0.7348461973
Zr886     Zr    0.9489355185    0.7552787911    0.7261411026
D977       D    1.0214631459    0.7842958837    0.7498428183
D978       D    1.0273917535    0.7583023876    0.7524944717
D979       D    1.0490176042    0.7640602280    0.7664663218
D980       D    1.0430889966    0.7900537241    0.7638146684
D981       D    1.0176622663    0.7707227916    0.7623212320
D982       D    1.0392881170    0.7764806321    0.7762930821
D983       D    1.0528184838    0.7776333201    0.7539879082
D984       D    1.0311926331    0.7718754796    0.7400160580
Zr901     Zr    1.0354548476    0.7728203318    0.7525931229
H928       H    0.9812323523    0.8262621314    0.8056284071
H936       H    1.0053623969    0.8273060627    0.7899534073
O872       O    0.9944324185    0.8154384944    0.7986704660
H919       H    0.9114330117    0.7671170583    0.6975129013
H933       H    0.9251281644    0.7919663993    0.7034127621
O888       O    0.9280574440    0.7746734105    0.6974454947
H920       H    1.0169538174    0.8337859894    0.6853309231
H935       H    1.0265621581    0.8331332156    0.7130796665
O903       O    1.0234636977    0.8221096446    0.6986949158
H925       H    1.0747820467    0.7614565216    0.7791404420
H934       H    1.0591864890    0.7371638693    0.7778355770
O905       O    1.0577732842    0.7553009143    0.7814799977
H927       H    0.9775948575    0.7009430703    0.6912556298
H931       H    0.9806187523    0.7209968729    0.6699275913
O908       O    0.9903347807    0.7101125921    0.6819083366
H923       H    0.9685443265    0.6924463566    0.7917119009
H930       H    0.9483536242    0.7129236793    0.7845963296
O909       O    0.9623735129    0.7033552513    0.7775828768
H915       H    0.9503557904    0.7538009444    0.7737148051
O880       O    0.9641658640    0.7576349058    0.7626270094
H918       H    1.0128426056    0.8151143672    0.7487421234
O881       O    1.0057370954    0.7984651065    0.7454927235
H924       H    1.0136153092    0.7033777385    0.8056075544
O887       O    1.0198645456    0.7181717568    0.7963051684
H916       H    0.9730064689    0.7612406773    0.6864676678
O890       O    0.9797400074    0.7622550573    0.7037322061
H917       H    1.0324000832    0.7252412905    0.7493966000
O892       O    1.0191342797    0.7378425909    0.7456175259
H932       H    0.9531697379    0.8203765285    0.6898759745
O896       O    0.9654444270    0.8098458294    0.6811929771
H929       H    1.0606335610    0.8032842847    0.7807650590
O900       O    1.0432139836    0.7980132741    0.7819429208
H921       H    1.0741704186    0.7976795379    0.7407443580
O904       O    1.0567615736    0.8009146315    0.7351960303
H922       H    0.9094528045    0.7308521598    0.7361600221
O912       O    0.9266680789    0.7272057751    0.7421847553
H926       H    0.9412855788    0.7336288092    0.6835214746
O913       O    0.9384969254    0.7270864431    0.7006484210
O879       O    0.9652560865    0.7902565319    0.7331166997
O882       O    1.0046503588    0.7658440656    0.7750020194
O889       O    0.9786497848    0.7296334311    0.7332425158
O891       O    1.0202245022    0.7704642171    0.7161072162
O873       O    0.9358024999    0.7996177506    0.7734982444
O878       O    0.9183818014    0.7753603406    0.7455220312
C893       C    0.9187228633    0.7905006147    0.7621010279
O874       O    0.9711145649    0.8342941301    0.7589490684
O876       O    0.9815454614    0.8373928319    0.7194903560
C895       C    0.9742901144    0.8450744154    0.7391992406
O875       O    0.9782413158    0.7382684844    0.8091587216
O877       O    0.9692635206    0.7788839595    0.8090763442
C894       C    0.9713820496    0.7578710874    0.8180823502
O897       O    1.0061490503    0.7898306385    0.6695755040
O898       O    1.0151268456    0.7492151634    0.6696578813
C899       C    1.0130089504    0.7702243127    0.6606518278
O902       O    1.0485878663    0.7284813723    0.7052359812
O906       O    1.0660085648    0.7527387823    0.7332121944
C907       C    1.0656675029    0.7375985082    0.7166331976
O910       O    1.0132758013    0.6938049928    0.7197851571
O911       O    1.0028449047    0.6907062909    0.7592438695
C914       C    1.0101002518    0.6830247075    0.7395349850
C985       C    0.0342542263    0.7248856195    0.5249442492
H986       H    0.0072138920    0.7277829527    0.5535818358
H987       H    0.0641062231    0.7827880266    0.5550416102
H988       H    0.0636736177    0.7266010974    0.4987054567
C989       C    0.0237544945    0.7356366042    0.5457866852
C990       C    0.0344981876    0.7564758795    0.5566196197
C991       C    0.0557426451    0.7665639622    0.5466077233
C992       C    0.0662423642    0.7558116737    0.5257639631
C993       C    0.0554986839    0.7349737022    0.5149323528
D1060      D    0.7618220588    0.4655009266    0.2938757837
D1061      D    0.7854875872    0.4722503068    0.2855283783
D1062      D    0.7748501390    0.4803917004    0.2622784246
D1063      D    0.7511846105    0.4736423204    0.2706258300
D1064      D    0.7718740864    0.4811057724    0.2944329667
D1065      D    0.7612366382    0.4892471661    0.2711830130
D1066      D    0.7647981113    0.4647868547    0.2617212415
D1067      D    0.7754355594    0.4566454610    0.2849711952
Zr994     Zr    0.7692855434    0.4764316061    0.2793798764
D1068      D    0.7168440122    0.5387781945    0.2130671661
D1069      D    0.7402551191    0.5447602857    0.2035209234
D1070      D    0.7511596795    0.5242718653    0.2173411287
D1071      D    0.7277485725    0.5182897741    0.2268873714
D1072      D    0.7263754413    0.5337914197    0.1980759747
D1073      D    0.7372800017    0.5133029994    0.2118961801
D1074      D    0.7416282504    0.5292586401    0.2323323200
D1075      D    0.7307236899    0.5497470605    0.2185121147
Zr1006    Zr    0.7340102719    0.5379128302    0.2164790362
D1076      D    0.7567476183    0.4569449711    0.2199498130
D1077      D    0.7326163128    0.4646992234    0.2265659305
D1078      D    0.7383041560    0.4899541271    0.2205295347
D1079      D    0.7624354615    0.4821998747    0.2139134173
D1080      D    0.7404622154    0.4590753379    0.2108124554
D1081      D    0.7461500584    0.4843302416    0.2047760596
D1082      D    0.7545895590    0.4878237602    0.2296668925
D1083      D    0.7489017158    0.4625688566    0.2357032882
Zr1007    Zr    0.7520636655    0.4740683183    0.2158144449
D1084      D    0.7381859186    0.5433934820    0.2938176471
D1085      D    0.7513945642    0.5238705548    0.2820052884
D1086      D    0.7579487918    0.5409543521    0.2627603233
D1087      D    0.7447401463    0.5604772792    0.2745726820
D1088      D    0.7556123301    0.5366792485    0.2948010277
D1089      D    0.7621665578    0.5537630458    0.2755560626
D1090      D    0.7405223804    0.5476685855    0.2617769427
D1091      D    0.7339681527    0.5305847883    0.2810219078
Zr1008    Zr    0.7512312996    0.5402798018    0.2800444572
D1093      D    0.7889772357    0.5119915943    0.2501605686
D1094      D    0.7798361448    0.5144397540    0.2252260652
D1095      D    0.7965513682    0.5341009065    0.2207214509
D1096      D    0.8063200908    0.5129116593    0.2441087997
D1097      D    0.7971789999    0.5153598188    0.2191742963
D1098      D    0.7792085131    0.5331808417    0.2267732198
D1099      D    0.7883496040    0.5307326820    0.2517077232
D1092      D    0.8056924591    0.5316527469    0.2456559543
Zr1009    Zr    0.7940857601    0.5192595531    0.2363383277
D1100      D    0.7237928540    0.4846139663    0.2570721556
D1101      D    0.7164016627    0.5100767931    0.2599300311
D1102      D    0.6953736712    0.5022471327    0.2730611721
D1103      D    0.7027648625    0.4767843059    0.2702032966
D1104      D    0.7269727673    0.4976932755    0.2698937481
D1105      D    0.7059447758    0.4898636150    0.2830248891
D1106      D    0.6921937578    0.4891678235    0.2602395796
D1107      D    0.7132217494    0.4969974840    0.2471084386
Zr1024    Zr    0.7092092050    0.4950885670    0.2595205745
H1051      H    0.7671759880    0.4419333392    0.3135692468
H1059      H    0.7429440828    0.4403400317    0.2970484890
O995       O    0.7532786333    0.4523528801    0.3063286381
H1042      H    0.8317612757    0.5112861295    0.2088236135
H1056      H    0.8196394275    0.4853140458    0.2138561285
O1011      O    0.8156218846    0.5027516512    0.2080628489
H1043      H    0.7302400254    0.4390933340    0.1919472472
H1058      H    0.7210233069    0.4376039951    0.2193683753
O1026      O    0.7232606645    0.4496138303    0.2052683341
H1048      H    0.6697113503    0.5025970563    0.2848843947
H1057      H    0.6838278113    0.5278663569    0.2845026050
O1028      O    0.6863488502    0.5096266732    0.2879078826
H1050      H    0.7618248810    0.5738036242    0.2013317471
H1054      H    0.7596693615    0.5547972344    0.1795867840
O1031      O    0.7495186310    0.5644138098    0.1914017466
H1046      H    0.7718165883    0.5771492602    0.3022119547
H1053      H    0.7930443766    0.5582984827    0.2954707275
O1032      O    0.7784018740    0.5674184697    0.2881264565
H1038      H    0.7932752487    0.5179608677    0.2838755496
O1003      O    0.7795649909    0.5139356363    0.2722529641
H1041      H    0.7341728895    0.4544038820    0.2557814192
O1004      O    0.7402401097    0.4716423130    0.2530415326
H1047      H    0.7277077470    0.5627597221    0.3143758542
O1010      O    0.7222035733    0.5481353767    0.3046257379
H1039      H    0.7698506753    0.5141142008    0.1957488050
O1013      O    0.7634457510    0.5117235778    0.2127609504
H1040      H    0.7094320814    0.5429796472    0.2571833263
O1015      O    0.7233425358    0.5313954480    0.2536635003
H1055      H    0.7931350079    0.4560298172    0.1989049230
O1019      O    0.7801525267    0.4663093931    0.1899669526
H1052      H    0.6862866253    0.4615644764    0.2863348740
O1023      O    0.7033685593    0.4678005980    0.2881971096
H1044      H    0.6718769591    0.4686203873    0.2459448169
O1027      O    0.6893468148    0.4667391976    0.2409473866
H1045      H    0.8321816992    0.5454447829    0.2481042869
O1035      O    0.8148878156    0.5477214113    0.2535912051
H1049      H    0.7998312315    0.5437522639    0.1943351408
O1036      O    0.8024796638    0.5494851692    0.2116579827
O1002      O    0.7799524293    0.4829526721    0.2421954018
O1005      O    0.7398492142    0.5026245422    0.2830979517
O1012      O    0.7630583125    0.5427065420    0.2428185127
O1014      O    0.7237299742    0.5004124838    0.2236059381
O996       O    0.8104602795    0.4730717185    0.2834361009
O1001      O    0.8260109440    0.4999228157    0.2564514824
C1016      C    0.8267957374    0.4838407726    0.2727752742
O997       O    0.7770560568    0.4371522055    0.2671226219
O999       O    0.7662601339    0.4356671089    0.2272638581
C1018      C    0.7742309740    0.4273111810    0.2470970631
O998       O    0.7650742420    0.5298117994    0.3185948130
O1000      O    0.7763972178    0.4897788376    0.3181794181
C1017      C    0.7731889635    0.5101338801    0.3274428584
O1020      O    0.7382207231    0.4845363206    0.1772640891
O1021      O    0.7268977474    0.5245692825    0.1776794840
C1022      C    0.7301051514    0.5042179237    0.1684160333
O1025      O    0.6928346856    0.5412764016    0.2124228012
O1029      O    0.6772840211    0.5144253043    0.2394074198
C1030      C    0.6764992278    0.5305073475    0.2230836280
O1033      O    0.7262389083    0.5771959145    0.2287362803
O1034      O    0.7370348313    0.5786810112    0.2685950440
C1037      C    0.7290639911    0.5870369391    0.2487618391
D1174      D    0.7515569417    0.3092114141    0.4436314079
D1175      D    0.7759772298    0.3023610169    0.4515063548
D1176      D    0.7670769263    0.2939239807    0.4748159553
D1177      D    0.7426566382    0.3007743778    0.4669410085
D1178      D    0.7621600107    0.2936203644    0.4427105798
D1179      D    0.7532597072    0.2851833281    0.4660201803
D1180      D    0.7564738573    0.3095150304    0.4757367835
D1181      D    0.7653741607    0.3179520666    0.4524271830
Zr1108    Zr    0.7603179265    0.2981003532    0.4578610209
D1182      D    0.7143216721    0.2349206969    0.5241967397
D1183      D    0.7385320713    0.2288219838    0.5332841521
D1184      D    0.7478099441    0.2494814848    0.5195562071
D1185      D    0.7235995448    0.2555801978    0.5104687948
D1186      D    0.7245779343    0.2397156691    0.5390933091
D1187      D    0.7338558071    0.2603751701    0.5253653641
D1188      D    0.7375536818    0.2446865125    0.5046596377
D1189      D    0.7282758090    0.2240270116    0.5183875827
Zr1120    Zr    0.7312377253    0.2358317335    0.5205194754
D1190      D    0.7506891315    0.3168196972    0.5177262441
D1191      D    0.7264578391    0.3091491940    0.5114025239
D1192      D    0.7334676718    0.2838265389    0.5170193091
D1193      D    0.7576989642    0.2914970423    0.5233430292
D1194      D    0.7350520033    0.3145710915    0.5270966117
D1195      D    0.7420618358    0.2892484365    0.5327133969
D1196      D    0.7491048001    0.2860751447    0.5076489413
D1197      D    0.7420949674    0.3113977996    0.5020321562
Zr1121    Zr    0.7469083586    0.2996486787    0.5217152238
D1198      D    0.7308818727    0.2313411695    0.4430672829
D1199      D    0.7440690991    0.2507084849    0.4549140207
D1200      D    0.7524448420    0.2333856133    0.4738265324
D1201      D    0.7392576156    0.2140182978    0.4619797946
D1202      D    0.7479854886    0.2380681201    0.4418889557
D1203      D    0.7563612315    0.2207452484    0.4608014674
D1204      D    0.7353412262    0.2266586627    0.4750048595
D1205      D    0.7269654833    0.2439815344    0.4560923478
Zr1122    Zr    0.7446465835    0.2342797253    0.4566652494
D1207      D    0.7831342513    0.2621819955    0.4862939433
D1208      D    0.7756174251    0.2594149636    0.5113367770
D1209      D    0.7933438043    0.2397052669    0.5153160544
D1210      D    0.8008739469    0.2611873763    0.4920514220
D1211      D    0.7933571208    0.2584203445    0.5170942558
D1212      D    0.7756041086    0.2406998860    0.5095585757
D1213      D    0.7831209348    0.2434669179    0.4845157419
D1206      D    0.8008606304    0.2424722987    0.4902732207
Zr1123    Zr    0.7893616655    0.2547406910    0.4999354284
D1214      D    0.7165235131    0.2896295365    0.4807918966
D1215      D    0.7099239221    0.2642107890    0.4777260977
D1216      D    0.6878060221    0.2722025595    0.4650402120
D1217      D    0.6944056131    0.2976213070    0.4681060110
D1218      D    0.7194112157    0.2767188332    0.4677542826
D1219      D    0.6972933157    0.2847106037    0.4550683969
D1220      D    0.6849183195    0.2851132628    0.4780778261
D1221      D    0.7070362195    0.2771214923    0.4907637117
Zr1138    Zr    0.7021932766    0.2791877130    0.4784450448
H1165      H    0.7548107721    0.3330232708    0.4241615597
H1173      H    0.7315424649    0.3344016821    0.4410895212
O1109      O    0.7417578235    0.3225128505    0.4314902595
H1156      H    0.8284021209    0.2623652950    0.5269348559
H1170      H    0.8149958360    0.2883911702    0.5224349420
O1125      O    0.8119945681    0.2708849203    0.5280664741
H1157      H    0.7252346160    0.3343039927    0.5463788348
H1172      H    0.7142867041    0.3361417236    0.5191347158
O1140      O    0.7178407211    0.3239561987    0.5330391972
H1162      H    0.6614455370    0.2720001638    0.4536312958
H1171      H    0.6765340276    0.2467365043    0.4534587689
O1142      O    0.6781554566    0.2650138565    0.4502490259
H1164      H    0.7613235899    0.1997635211    0.5347492179
H1168      H    0.7597821421    0.2184854872    0.5567672295
O1145      O    0.7492765102    0.2090216321    0.5449961863
H1160      H    0.7652583355    0.1977086994    0.4336963940
H1167      H    0.7861755587    0.2164699716    0.4403352487
O1146      O    0.7723350335    0.2072572379    0.4477963889
H1152      H    0.7855909660    0.2566458974    0.4524432051
O1117      O    0.7724471204    0.2605194292    0.4643357440
H1155      H    0.7258349499    0.3198143657    0.4823039372
O1118      O    0.7327189010    0.3025476224    0.4847225101
H1161      H    0.7198821898    0.2122425577    0.4224353414
O1124      O    0.7144248325    0.2267366747    0.4324599745
H1153      H    0.7674299681    0.2593625753    0.5409703480
O1127      O    0.7598958812    0.2619687497    0.5240980424
H1154      H    0.7043703625    0.2312830165    0.4801603261
O1129      O    0.7180513947    0.2428202870    0.4836034416
H1169      H    0.7883127813    0.3174708623    0.5381877164
O1133      O    0.7762729160    0.3070788112    0.5472002454
H1166      H    0.6763719595    0.3130396981    0.4524423644
O1137      O    0.6935672062    0.3068318498    0.4502240219
H1158      H    0.6647100246    0.3054683641    0.4929616181
O1141      O    0.6824061441    0.3072875340    0.4976991658
H1159      H    0.8277083744    0.2287198886    0.4872193742
O1149      O    0.8101731152    0.2265116893    0.4819845488
H1163      H    0.7986031032    0.2297206657    0.5415164459
O1150      O    0.8004060732    0.2242112902    0.5240823536
O1116      O    0.7735035474    0.2911081170    0.4947770316
O1119      O    0.7316590609    0.2719596543    0.4542824307
O1126      O    0.7588394542    0.2313800619    0.4936567549
O1128      O    0.7191078217    0.2734089748    0.5140447291
O1110      O    0.8010967429    0.3015166461    0.4531834731
O1115      O    0.8193078699    0.2743321939    0.4795617059
C1130      C    0.8184843033    0.2906173690    0.4634378194
O1111      O    0.7673498049    0.3372110190    0.4704952527
O1113      O    0.7589442722    0.3381850920    0.5105350823
C1132      C    0.7653804400    0.3467925845    0.4906870376
O1112      O    0.7557257100    0.2452384237    0.4180382803
O1114      O    0.7655545207    0.2852541175    0.4187866861
C1131      C    0.7625503058    0.2650238119    0.4093155809
O1134      O    0.7358292320    0.2886899803    0.5603421928
O1135      O    0.7260004214    0.2486742864    0.5595937870
C1136      C    0.7290039265    0.2689009094    0.5690648689
O1139      O    0.6904581991    0.2324117579    0.5251970000
O1143      O    0.6722470722    0.2595962101    0.4988187672
C1144      C    0.6730706388    0.2433110349    0.5149426537
O1147      O    0.7242051372    0.1967173850    0.5078852204
O1148      O    0.7326106699    0.1957433120    0.4678453908
C1151      C    0.7261745021    0.1871358195    0.4876934355
C1222      C    0.7813233899    0.3061038677    0.2638850930
H1223      H    0.8101631541    0.3035452017    0.2370567979
H1224      H    0.8105618921    0.2453597016    0.2936449266
H1225      H    0.7548139722    0.3038232401    0.2930851298
C1226      C    0.8021441868    0.2950955867    0.2534900577
C1227      C    0.8126680099    0.2732335285    0.2642005936
C1228      C    0.8023686462    0.2623799988    0.2853071678
C1229      C    0.7815465389    0.2733896372    0.2957021870
C1230      C    0.7710240261    0.2952503380    0.2849916672
C1231      C    0.7178727630    0.7091879492    0.2261780988
H1232      H    0.6887419566    0.7114434045    0.2527119270
H1233      H    0.6873920923    0.7687163486    0.1951874166
H1234      H    0.7445755127    0.7116761695    0.1971757410
C1235      C    0.6966927542    0.7198343352    0.2362137819
C1236      C    0.6857222911    0.7412592515    0.2250606870
C1237      C    0.6959334651    0.7520367803    0.2038701317
C1238      C    0.7171148049    0.7413890573    0.1938344850
C1239      C    0.7280839371    0.7199654779    0.2049875436
C1240      C    0.7815319072    0.4939680854    0.4479686666
H1241      H    0.8102209834    0.5212916592    0.4501328803
H1242      H    0.8109887396    0.4651754511    0.5087546429
H1243      H    0.7551892858    0.4643511319    0.4506482847
C1244      C    0.8023022640    0.5047940705    0.4587618723
C1245      C    0.8129042253    0.4944320854    0.4806393826
C1246      C    0.8027342518    0.4732422636    0.4917227084
C1247      C    0.7819625966    0.4624162491    0.4809281414
C1248      C    0.7713619337    0.4727782636    0.4590519924
D1315      D    0.4887460725    0.4500554046    0.9469044832
D1316      D    0.4647667154    0.4571886709    0.9545522274
D1317      D    0.4747983166    0.4650419490    0.9777080797
D1318      D    0.4987776737    0.4579086828    0.9700603355
D1319      D    0.4783574907    0.4658448217    0.9456028515
D1320      D    0.4883890919    0.4736980999    0.9687587037
D1321      D    0.4851868984    0.4492525319    0.9790097114
D1322      D    0.4751552973    0.4413992538    0.9558538592
Zr1249    Zr    0.4807700582    0.4610574459    0.9608628883
D1323      D    0.5306350828    0.5222019598    1.0259536160
D1324      D    0.5069048216    0.5285579589    1.0348315492
D1325      D    0.4967016851    0.5083175708    1.0215309348
D1326      D    0.5204319463    0.5019615718    1.0126530016
D1327      D    0.5209302382    0.5173165974    1.0409287181
D1328      D    0.5107271017    0.4970762094    1.0276281037
D1329      D    0.5064065297    0.5132029333    1.0065558328
D1330      D    0.5166096662    0.5334433213    1.0198564472
Zr1261    Zr    0.5135434869    0.5216550657    1.0222425173
D1331      D    0.4926369316    0.4410825562    1.0211912042
D1332      D    0.5167318810    0.4484410494    1.0147710941
D1333      D    0.5103752001    0.4737769875    1.0198033602
D1334      D    0.4862802507    0.4664184942    1.0262234702
D1335      D    0.5087131361    0.4428852314    1.0305631117
D1336      D    0.5023564552    0.4682211694    1.0355953777
D1337      D    0.4942989956    0.4719743123    1.0104314526
D1338      D    0.5006556765    0.4466383743    1.0053991866
Zr1262    Zr    0.4968704474    0.4581095556    1.0248106882
D1339      D    0.5106827101    0.5275508579    0.9446708298
D1340      D    0.4976769998    0.5082043855    0.9569106376
D1341      D    0.4903874047    0.5253242798    0.9754160470
D1342      D    0.5033931150    0.5446707522    0.9631762391
D1343      D    0.4934140534    0.5211474261    0.9435882763
D1344      D    0.4861244582    0.5382673204    0.9620936856
D1345      D    0.5076560615    0.5317277115    0.9764986004
D1346      D    0.5149456566    0.5146078173    0.9579931911
Zr1263    Zr    0.4974438673    0.5246066256    0.9582946143
D1348      D    0.4597463744    0.4968472125    0.9884317096
D1349      D    0.4683745614    0.4990247709    1.0134431924
D1350      D    0.4511367370    0.5189672591    1.0169288583
D1351      D    0.4422630893    0.4980477860    0.9941128324
D1352      D    0.4508912763    0.5002253443    1.0191243152
D1353      D    0.4686200222    0.5177666857    1.0112477355
D1354      D    0.4599918352    0.5155891274    0.9862362527
D1347      D    0.4425085501    0.5167897008    0.9919173755
Zr1264    Zr    0.4542192605    0.5041468233    1.0018915237
D1355      D    0.5256891797    0.4683391560    0.9837487935
D1356      D    0.5325781124    0.4936907439    0.9801367844
D1357      D    0.5540313341    0.4855445822    0.9676950090
D1358      D    0.5471424014    0.4601929944    0.9713070181
D1359      D    0.5224590952    0.4815346373    0.9704110906
D1360      D    0.5439123169    0.4733884757    0.9579693153
D1361      D    0.5572614186    0.4723491009    0.9810327119
D1362      D    0.5358081969    0.4804952625    0.9934744872
Zr1279    Zr    0.5400950541    0.4785693579    0.9812137789
H1306      H    0.4842727518    0.4266626021    0.9279495746
H1314      H    0.5082435446    0.4245675508    0.9449858431
O1250      O    0.4978132035    0.4368073063    0.9350871441
H1297      H    0.4161905117    0.4967169223    1.0289452899
H1311      H    0.4289811734    0.4705453624    1.0250659508
O1266      O    0.4325102794    0.4878912133    1.0303185088
H1298      H    0.5190278220    0.4226340163    1.0503208010
H1313      H    0.5287908634    0.4211016653    1.0231447628
O1281      O    0.5260270034    0.4330924325    1.0367703786
H1303      H    0.5799171976    0.4854925059    0.9563613706
H1312      H    0.5652328596    0.5110168117    0.9555787172
O1283      O    0.5631741583    0.4928316946    0.9527701018
H1305      H    0.4846474428    0.5579812660    1.0355782042
H1309      H    0.4868169179    0.5388360027    1.0580238924
O1286      O    0.4969807431    0.5483275235    1.0460719453
H1301      H    0.4764522525    0.5619477813    0.9344403776
H1308      H    0.4555032712    0.5434378017    0.9414331332
O1287      O    0.4698157932    0.5522689568    0.9487345549
H1293      H    0.4559419017    0.5030422801    0.9544409496
O1258      O    0.4695306868    0.4987223138    0.9664642186
H1296      H    0.5159433374    0.4382987754    0.9859042616
O1259      O    0.5094442504    0.4556372386    0.9879172825
H1302      H    0.5211226600    0.5468273317    0.9236425935
O1265      O    0.5267690195    0.5320587618    0.9340098535
H1294      H    0.4778239577    0.4983929600    1.0431092012
O1268      O    0.4846003107    0.4959630983    1.0263141242
H1295      H    0.5387778667    0.5264672352    0.9818557371
O1270      O    0.5250499278    0.5151105131    0.9855137445
H1310      H    0.4558622350    0.4407184913    1.0415544145
O1274      O    0.4684589348    0.4507319220    1.0503757144
H1307      H    0.5642617216    0.4447483180    0.9560392645
O1278      O    0.5470698817    0.4512965556    0.9536280458
H1299      H    0.5777725797    0.4513737758    0.9964373044
O1282      O    0.5602432897    0.4497792061    1.0011610309
H1300      H    0.4157502795    0.5310649391    0.9884720708
O1290      O    0.4331039370    0.5330603197    0.9832417644
H1304      H    0.4471533638    0.5285633717    1.0428973158
O1291      O    0.4446998236    0.5344208076    1.0253302168
O1257      O    0.4692643868    0.4676056681    0.9975915581
O1260      O    0.5097140039    0.4867530830    0.9567911783
O1267      O    0.4848666107    0.5270797440    0.9951867848
O1269      O    0.5247836279    0.4839938674    1.0166410839
O1251      O    0.4397258971    0.4584429516    0.9561320650
O1256      O    0.4230777075    0.4854579923    0.9818546416
C1271      C    0.4229487252    0.4694571409    0.9660917599
O1252      O    0.4736301376    0.4218509170    0.9743494649
O1254      O    0.4837228986    0.4199992984    1.0144480465
C1273      C    0.4763003263    0.4118692374    0.9947662090
O1253      O    0.4845406700    0.5145500323    0.9198666372
O1255      O    0.4740832528    0.4747046116    0.9214755962
C1272      C    0.4770184577    0.4950491640    0.9115608390
O1275      O    0.5097736447    0.4681661489    1.0632386653
O1276      O    0.5202310619    0.5080115696    1.0616297063
C1277      C    0.5172966265    0.4876706869    1.0715443605
O1280      O    0.5545884176    0.5242732296    1.0269732375
O1284      O    0.5712366072    0.4972581889    1.0012506609
C1285      C    0.5713655895    0.5132590403    1.0170135426
O1288      O    0.5206841771    0.5608652642    1.0087558377
O1289      O    0.5105914161    0.5627168829    0.9686572561
C1292      C    0.5180139884    0.5708469439    0.9883390935
C1363      C    0.5704633491    0.7042446738    0.0267568849
H1364      H    0.5683340701    0.6748501844   -0.0001424520
H1365      H    0.5121177104    0.6751888514    0.0549970026
H1366      H    0.5679444623    0.7313233545    0.0559068928
C1367      C    0.5600743520    0.6831407751    0.0160824896
C1368      C    0.5390755534    0.6726826850    0.0262460738
C1369      C    0.5284659420    0.6833309261    0.0470850630
C1370      C    0.5388562348    0.7044361444    0.0577594764
C1371      C    0.5598537378    0.7148929149    0.0475958741
D1438      D    0.2080806825    0.2109763204    0.9979394184
D1439      D    0.2162592976    0.2168397657    1.0224085324
D1440      D    0.2392770922    0.2243583543    1.0129817667
D1441      D    0.2310984772    0.2184949092    0.9885126527
D1442      D    0.2074480196    0.2263502503    1.0084301872
D1443      D    0.2304658143    0.2338688391    0.9990034215
D1444      D    0.2399097551    0.2089844244    1.0024909979
D1445      D    0.2168919605    0.2014658357    1.0119177635
Zr1372    Zr    0.2223743853    0.2211763831    1.0064376035
D1446      D    0.2879457523    0.2822507389    0.9581354934
D1447      D    0.2973146231    0.2873085242    0.9823879557
D1448      D    0.2836752498    0.2670909051    0.9922549957
D1449      D    0.2743063791    0.2620331199    0.9680025333
D1450      D    0.3027801679    0.2764758681    0.9683759728
D1451      D    0.2891407947    0.2562582492    0.9782430127
D1452      D    0.2688408343    0.2728657759    0.9820145162
D1453      D    0.2824802075    0.2930833950    0.9721474763
Zr1384    Zr    0.2845258997    0.2811019570    0.9752906189
D1454      D    0.2813138315    0.1997732589    0.9962048856
D1455      D    0.2747996607    0.2083498506    0.9716871756
D1456      D    0.2806725428    0.2332246004    0.9783143827
D1457      D    0.2871867135    0.2246480087    1.0028320927
D1458      D    0.2903954197    0.2019501479    0.9802471570
D1459      D    0.2962683017    0.2268248978    0.9868743640
D1460      D    0.2715909545    0.2310477113    0.9942721114
D1461      D    0.2657180724    0.2061729615    0.9876449043
Zr1385    Zr    0.2853602921    0.2168422617    0.9920729686
D1462      D    0.2079272236    0.2893814544    0.9758798121
D1463      D    0.2196557615    0.2691112921    0.9893419487
D1464      D    0.2386320547    0.2853038947    0.9972956221
D1465      D    0.2269035168    0.3055740570    0.9838334855
D1466      D    0.2069314939    0.2822903592    0.9932794629
D1467      D    0.2259077871    0.2984829618    1.0012331362
D1468      D    0.2396277844    0.2923949900    0.9798959713
D1469      D    0.2206514912    0.2762023874    0.9719422980
Zr1386    Zr    0.2215399927    0.2854397796    0.9896544812
D1471      D    0.2511265277    0.2551429747    1.0285773277
D1472      D    0.2758281278    0.2568730286    1.0206113663
D1473      D    0.2801751834    0.2759505953    1.0381735130
D1474      D    0.2570693623    0.2554189748    1.0464121171
D1475      D    0.2817709624    0.2571490286    1.0384461558
D1476      D    0.2742323488    0.2756745953    1.0203387235
D1477      D    0.2495307487    0.2739445414    1.0283046848
D1470      D    0.2554735833    0.2742205414    1.0461394743
Zr1387    Zr    0.2647722791    0.2617646039    1.0345785425
D1478      D    0.2445505315    0.2296079455    0.9617559630
D1479      D    0.2416512531    0.2553382610    0.9547438092
D1480      D    0.2287334090    0.2485115030    0.9326815556
D1481      D    0.2316326874    0.2227811875    0.9396937094
D1482      D    0.2318024397    0.2430833283    0.9646501069
D1483      D    0.2188845956    0.2362565704    0.9425878533
D1484      D    0.2414815008    0.2350361202    0.9297874117
D1485      D    0.2543993449    0.2418628782    0.9518496653
Zr1402    Zr    0.2421280056    0.2405174374    0.9471489074
H1429      H    0.1886518703    0.1880352951    1.0018423152
H1437      H    0.2050772145    0.1864046495    0.9781290951
O1373      O    0.1958202899    0.1985096286    0.9883978892
H1420      H    0.2919422253    0.2518594769    1.0737883566
H1434      H    0.2870826031    0.2263847950    1.0606937046
O1389      O    0.2927676192    0.2436896203    1.0573228322
H1421      H    0.3091695941    0.1815189384    0.9703718261
H1436      H    0.2820508800    0.1812810523    0.9596946478
O1404      O    0.2959625731    0.1926998487    0.9629194124
H1426      H    0.2170939413    0.2499209576    0.9061918504
H1435      H    0.2173463825    0.2748200094    0.9210591475
O1406      O    0.2140323230    0.2566599400    0.9230155933
H1428      H    0.2993236955    0.3157323179    1.0049601256
H1432      H    0.3209243910    0.2959743433    1.0033961872
O1409      O    0.3092199762    0.3062715391    0.9927922233
H1424      H    0.1994100730    0.3226222277    1.0102313542
H1431      H    0.2060946028    0.3030216053    1.0315635996
O1410      O    0.2133721593    0.3122112584    1.0173412055
H1416      H    0.2177150748    0.2622704840    1.0314204735
O1381      O    0.2292719672    0.2581408388    1.0180414411
H1419      H    0.2459070783    0.1991206539    0.9716006892
O1382      O    0.2485433735    0.2160989675    0.9782642871
H1425      H    0.1875333157    0.3097577541    0.9647474777
O1388      O    0.1972520204    0.2949094532    0.9593202320
H1417      H    0.3050391840    0.2556810064    1.0119484820
O1391      O    0.2882215967    0.2540842660    1.0045963306
H1418      H    0.2442735714    0.2882830999    0.9486030899
O1393      O    0.2477624887    0.2762407047    0.9625562948
H1433      H    0.3020570169    0.1971953896    1.0339636033
O1397      O    0.3109039898    0.2074441841    1.0215225510
H1430      H    0.2157582571    0.2085726551    0.9219096473
O1401      O    0.2138479439    0.2144644242    0.9392202723
H1422      H    0.2557591757    0.2144537168    0.9094795370
O1405      O    0.2606676538    0.2119668784    0.9273261583
H1423      H    0.2529318768    0.2874593061    1.0731006982
O1413      O    0.2475369380    0.2903554642    1.0554172749
H1427      H    0.3062563401    0.2845263369    1.0429932498
O1414      O    0.2890789562    0.2908419821    1.0449607431
O1380      O    0.2591377961    0.2260413366    1.0191711551
O1383      O    0.2186786881    0.2481977753    0.9771311193
O1390      O    0.2583557679    0.2861837682    1.0034666166
O1392      O    0.2776283176    0.2441412025    0.9636860088
O1374      O    0.2182624165    0.2169826447    1.0477562046
O1379      O    0.2448434923    0.2424295040    1.0654013462
C1394      C    0.2287365413    0.2269521706    1.0650266293
O1375      O    0.2346268739    0.1812769290    1.0139676789
O1377      O    0.2741222493    0.1785559478    1.0049633498
C1396      C    0.2544949220    0.1707587372    1.0118573288
O1376      O    0.1833738992    0.2760934843    1.0015219831
O1378      O    0.1838957717    0.2358001691    1.0120479295
C1395      C    0.1746616477    0.2565661645    1.0088311788
O1398      O    0.3235263856    0.2261885571    0.9802054667
O1399      O    0.3230045131    0.2664818723    0.9696795204
C1400      C    0.3322386368    0.2457195781    0.9728954986
O1403      O    0.2886378683    0.2852993967    0.9339712453
O1407      O    0.2620567925    0.2598525373    0.9163261037
C1408      C    0.2781637435    0.2753298707    0.9167008205
O1411      O    0.2722734109    0.3210051124    0.9677597710
O1412      O    0.2327780355    0.3237260936    0.9767641001
C1415      C    0.2524053628    0.3315233042    0.9698701211
C1486      C    0.2737187287    0.4409065846    0.9503454923
H1487      H    0.2462969939    0.4442174854    0.9207303899
H1488      H    0.3024633469    0.5000000415    0.9204799215
H1489      H    0.3034300533    0.4423047162    0.9775815546
C1490      C    0.2628299938    0.4520778471    0.9289901055
C1491      C    0.2731747081    0.4733462452    0.9182410158
C1492      C    0.2944099930    0.4834423127    0.9288489606
C1493      C    0.3052987604    0.4722696977    0.9502056765
C1494      C    0.2949540136    0.4510026520    0.9609534371
C1495      C    0.4713408949    0.2884847362    0.9719082311
H1496      H    0.4984140695    0.2860806899    0.9432578347
H1497      H    0.4426193643    0.2299227777    0.9419525269
H1498      H    0.4419799815    0.2862220888    0.9981724394
C1499      C    0.4820372990    0.2779070624    0.9510810288
C1500      C    0.4717008925    0.2568299651    0.9402995260
C1501      C    0.4506662596    0.2463315574    0.9503467956
C1502      C    0.4399698306    0.2569105511    0.9711753059
C1503      C    0.4503062620    0.2779863286    0.9819555007
D1570      D    0.5006688578    0.0512861766    0.5408964865
D1571      D    0.5247904520    0.0428865916    0.5349478846
D1572      D    0.5151216979    0.0198619645    0.5266461866
D1573      D    0.4910001036    0.0282615494    0.5325947884
D1574      D    0.5111048074    0.0523174637    0.5257211550
D1575      D    0.5014360533    0.0292928366    0.5174194569
D1576      D    0.5046857482    0.0188306773    0.5418215181
D1577      D    0.5143545023    0.0418553044    0.5501232161
Zr1504    Zr    0.5088912025    0.0370045814    0.5303383403
D1578      D    0.4602028868   -0.0270179604    0.4671942895
D1579      D    0.4840898162   -0.0366510131    0.4620037109
D1580      D    0.4940208245   -0.0235814288    0.4825954331
D1581      D    0.4701338950   -0.0139483761    0.4877860116
D1582      D    0.4701039075   -0.0424001566    0.4724857536
D1583      D    0.4800349158   -0.0293305723    0.4930774757
D1584      D    0.4841198037   -0.0081992326    0.4773039690
D1585      D    0.4741887955   -0.0212688169    0.4567122468
Zr1516    Zr    0.4772414155   -0.0237819949    0.4685552365
D1586      D    0.4978062825   -0.0234658456    0.5495217255
D1587      D    0.4736459600   -0.0162767282    0.5410798200
D1588      D    0.4801793383   -0.0214937796    0.5162293230
D1589      D    0.5043396608   -0.0286828969    0.5246712286
D1590      D    0.4818696197   -0.0324335540    0.5469554389
D1591      D    0.4884029979   -0.0376506053    0.5221049419
D1592      D    0.4961160012   -0.0125260710    0.5187956097
D1593      D    0.4895826229   -0.0073090197    0.5436461066
Zr1517    Zr    0.4936937293   -0.0269612538    0.5324158900
D1594      D    0.4790140608    0.0543053731    0.4629392485
D1595      D    0.4921180307    0.0415591785    0.4827443199
D1596      D    0.4997441019    0.0227259105    0.4660755493
D1597      D    0.4866401320    0.0354721051    0.4462704779
D1598      D    0.4962434242    0.0548782422    0.4701180057
D1599      D    0.5038694954    0.0360449741    0.4534492351
D1600      D    0.4825147385    0.0221530414    0.4588967920
D1601      D    0.4748886672    0.0409863095    0.4755655626
Zr1518    Zr    0.4924381326    0.0401839726    0.4664740081
D1603      D    0.5304596518    0.0086649032    0.4957812182
D1604      D    0.5221979111   -0.0162797904    0.4931772178
D1605      D    0.5395697176   -0.0202669858    0.4741996646
D1606      D    0.5480317889    0.0024284353    0.4954143424
D1607      D    0.5397700483   -0.0225162584    0.4928103421
D1608      D    0.5219975805   -0.0140305179    0.4745665403
D1609      D    0.5302593211    0.0109141758    0.4771705407
D1602      D    0.5478314582    0.0046777078    0.4768036650
Zr1519    Zr    0.5362104577   -0.0050482113    0.4887819248
D1610      D    0.4643238203    0.0152767634    0.5209440126
D1611      D    0.4574858003    0.0191592333    0.4954587316
D1612      D    0.4358177904    0.0323134504    0.5025390289
D1613      D    0.4426558103    0.0284309805    0.5280243099
D1614      D    0.4674170192    0.0286420548    0.5080180114
D1615      D    0.4457490093    0.0417962719    0.5150983087
D1616      D    0.4327245914    0.0189481591    0.5154650302
D1617      D    0.4543926014    0.0057939419    0.5083847329
Zr1534    Zr    0.4499214042    0.0182709301    0.5101079733
H1561      H    0.5047752501    0.0702165225    0.5643516396
H1569      H    0.4810368823    0.0537520114    0.5652684056
O1505      O    0.4913767671    0.0634389081    0.5536292257
H1552      H    0.5746022020   -0.0334378026    0.4979313133
H1566      H    0.5616470589   -0.0291946218    0.5233035171
O1521      O    0.5582637424   -0.0343557348    0.5059126393
H1553      H    0.4717540513   -0.0520706534    0.5665390374
H1568      H    0.4615935731   -0.0244031854    0.5676302074
O1536      O    0.4646023024   -0.0381946405    0.5558431109
H1558      H    0.4097655159    0.0444943282    0.5013733771
H1567      H    0.4245450848    0.0448919139    0.4767396931
O1538      O    0.4264894121    0.0476323763    0.4948904502
H1560      H    0.5064813717   -0.0380108101    0.4338586036
H1564      H    0.5045552364   -0.0605940778    0.4527286913
O1541      O    0.4942573725   -0.0482372051    0.4428397771
H1556      H    0.5132432686    0.0636621429    0.4304415867
H1563      H    0.5342197851    0.0559707312    0.4498011691
O1542      O    0.5200461010    0.0490486221    0.4403455326
H1548      H    0.5338024512    0.0428123876    0.4898571510
O1513      O    0.5203665449    0.0310902421    0.4934827082
H1551      H    0.4739790816    0.0127704470    0.5512208648
O1514      O    0.4805788696    0.0105786785    0.5343187129
H1557      H    0.4683498686    0.0758313366    0.4433370380
O1520      O    0.4627910150    0.0655276272    0.4577131935
H1549      H    0.5131701175   -0.0458947713    0.4933165295
O1523      O    0.5061419752   -0.0287765146    0.4954273079
H1550      H    0.4514438882    0.0176617473    0.4626300034
O1525      O    0.4651797736    0.0135541760    0.4745504377
H1565      H    0.5348767322   -0.0450658214    0.5516070069
O1529      O    0.5224457472   -0.0535679372    0.5410576359
H1562      H    0.4252519248    0.0442936244    0.5425584392
O1533      O    0.4424383756    0.0462281848    0.5368803939
H1554      H    0.4123457162    0.0039959165    0.5352876717
O1537      O    0.4299387000   -0.0012816788    0.5376984633
H1555      H    0.5746024541    0.0073852873    0.4639129672
O1545      O    0.5571795007    0.0131687935    0.4611133695
H1559      H    0.5439653763   -0.0465348958    0.4648315117
O1546      O    0.5461912449   -0.0288968906    0.4591571770
O1512      O    0.5209520883   -0.0003314572    0.5243394604
O1515      O    0.4799898867    0.0419992334    0.5034625901
O1522      O    0.5055564319    0.0026451846    0.4645705557
O1524      O    0.4657653170   -0.0178675233    0.5054071899
O1506      O    0.5498625764    0.0405605118    0.5348926260
O1511      O    0.5669925467    0.0141957787    0.5088387804
C1526      C    0.5668300087    0.0300493192    0.5247463970
O1507      O    0.5160652141    0.0231429150    0.5695742605
O1509      O    0.5065386156   -0.0169670694    0.5708802506
C1528      C    0.5136466720    0.0026333687    0.5793280406
O1508      O    0.5047508192    0.0785090176    0.4771188151
O1510      O    0.5150698137    0.0765168118    0.5171619774
C1527      C    0.5120751945    0.0866257715    0.4968425499
O1530      O    0.4813810427   -0.0652862988    0.5217710830
O1531      O    0.4710620482   -0.0632940930    0.4817279207
C1532      C    0.4740559112   -0.0734029204    0.5020436695
O1535      O    0.4362692855   -0.0273377930    0.4639972721
O1539      O    0.4191393152   -0.0009730599    0.4900511177
C1540      C    0.4193018532   -0.0168266004    0.4741435011
O1543      O    0.4700666478   -0.0099201962    0.4293156376
O1544      O    0.4795932463    0.0301897882    0.4280096475
C1547      C    0.4724851899    0.0105893501    0.4195618574
D1684      D    0.2367222702    0.0511808948    0.1946338596
D1685      D    0.2128711756    0.0422640612    0.1999322826
D1686      D    0.2235050385    0.0191259511    0.2087793391
D1687      D    0.2473561330    0.0280427846    0.2034809162
D1688      D    0.2257895577    0.0516025701    0.2094631875
D1689      D    0.2364234205    0.0284644600    0.2183102442
D1690      D    0.2344377510    0.0187042757    0.1939500112
D1691      D    0.2238038882    0.0418423858    0.1851029547
Zr1618    Zr    0.2289422759    0.0364648635    0.2050896993
D1692      D    0.2791389130   -0.0287917321    0.2703777596
D1693      D    0.2556094199   -0.0389153433    0.2749398972
D1694      D    0.2455958578   -0.0253585240    0.2539183887
D1695      D    0.2691253510   -0.0152349128    0.2493562511
D1696      D    0.2702020704   -0.0441475700    0.2649606512
D1697      D    0.2601885083   -0.0305907507    0.2439391428
D1698      D    0.2545327005   -0.0100026861    0.2593354971
D1699      D    0.2645462626   -0.0235595054    0.2803570055
Zr1630    Zr    0.2619726189   -0.0257531678    0.2684604598
D1700      D    0.2437632213   -0.0232520058    0.1869413382
D1701      D    0.2672955313   -0.0159843239    0.1960338780
D1702      D    0.2603099320   -0.0220505742    0.2207181419
D1703      D    0.2367776220   -0.0293182559    0.2116256021
D1704      D    0.2600935964   -0.0320733311    0.1900932013
D1705      D    0.2531079972   -0.0381395813    0.2147774653
D1706      D    0.2439795569   -0.0132292487    0.2175662787
D1707      D    0.2509651562   -0.0071629986    0.1928820149
Zr1631    Zr    0.2475582554   -0.0272115711    0.2041951914
D1708      D    0.2559343098    0.0521215230    0.2731427487
D1709      D    0.2440811982    0.0397995795    0.2530989010
D1710      D    0.2369576671    0.0203545532    0.2697284905
D1711      D    0.2488107787    0.0326764967    0.2897723382
D1712      D    0.2388873259    0.0526725539    0.2654373721
D1713      D    0.2317637948    0.0332275275    0.2820669616
D1714      D    0.2540046510    0.0198035223    0.2774338671
D1715      D    0.2611281821    0.0392485487    0.2608042775
Zr1632    Zr    0.2433572808    0.0379232973    0.2693586644
D1717      D    0.2078542051    0.0067741331    0.2392695529
D1718      D    0.2173488268   -0.0181293129    0.2424029881
D1719      D    0.1996335668   -0.0229381843    0.2608746452
D1720      D    0.1906013629    0.0002820210    0.2391680357
D1721      D    0.2000959846   -0.0246214250    0.2423014707
D1722      D    0.2168864090   -0.0164460723    0.2609761625
D1723      D    0.2073917874    0.0084573737    0.2578427274
D1716      D    0.1901389451    0.0019652617    0.2577412100
Zr1633    Zr    0.2026196818   -0.0072302863    0.2462393538
D1724      D    0.2743698006    0.0150779825    0.2160819131
D1725      D    0.2802571985    0.0182769593    0.2417077503
D1726      D    0.3014384273    0.0319476758    0.2351504501
D1727      D    0.2955510294    0.0287486990    0.2095246129
D1728      D    0.2701967811    0.0280024579    0.2287508486
D1729      D    0.2913780099    0.0416731744    0.2221935483
D1730      D    0.3056114468    0.0190232004    0.2224815147
D1731      D    0.2844302179    0.0053524839    0.2290388149
Zr1648    Zr    0.2882958544    0.0179420125    0.2273145020
H1675      H    0.2323084585    0.0707661522    0.1708644443
H1683      H    0.2569351407    0.0546650749    0.1708593894
O1619      O    0.2457473123    0.0638498805    0.1820621493
H1666      H    0.1659922073   -0.0358714172    0.2362417130
H1680      H    0.1794650926   -0.0306730918    0.2112437059
O1635      O    0.1826101432   -0.0363169160    0.2287786402
H1667      H    0.2718122448   -0.0509667706    0.1710583909
H1682      H    0.2805499837   -0.0231296862    0.1699696542
O1650      O    0.2779211704   -0.0373202989    0.1818073103
H1672      H    0.3268131441    0.0444547438    0.2369759980
H1681      H    0.3112939396    0.0438932508    0.2611284440
O1652      O    0.3097370581    0.0471602629    0.2429055161
H1674      H    0.2324688508   -0.0414475419    0.3023869737
H1678      H    0.2361330817   -0.0634228522    0.2838472871
O1655      O    0.2454910904   -0.0512265575    0.2939032868
H1670      H    0.2202674878    0.0600051680    0.3044558241
H1677      H    0.2002643895    0.0526132439    0.2845595046
O1656      O    0.2145229934    0.0456020358    0.2945170322
H1662      H    0.2025449116    0.0406867882    0.2447032884
O1627      O    0.2167007407    0.0292657263    0.2416237359
H1665      H    0.2657334805    0.0133618036    0.1855676320
O1628      O    0.2587551567    0.0105620120    0.2022755476
H1671      H    0.2648927587    0.0731934689    0.2928110096
O1634      O    0.2714127107    0.0634087029    0.2787345615
H1663      H    0.2279349770   -0.0476075738    0.2428715439
O1637      O    0.2341247560   -0.0303301558    0.2407863962
H1664      H    0.2854163045    0.0158617093    0.2747055904
O1639      O    0.2722469014    0.0119269467    0.2624225426
H1679      H    0.2078935223   -0.0453022014    0.1839652544
O1643      O    0.2204606572   -0.0539508588    0.1949797752
H1676      H    0.3125445787    0.0452952768    0.1953600556
O1647      O    0.2950927686    0.0468156724    0.2004848017
H1668      H    0.3273528875    0.0049644687    0.2034695940
O1651      O    0.3101101149   -0.0004844347    0.2005817962
H1669      H    0.1628522737    0.0039042025    0.2697694532
O1659      O    0.1798870894    0.0098446587    0.2730348058
H1673      H    0.1963441321   -0.0495481582    0.2703929320
O1660      O    0.1930260897   -0.0321182727    0.2757961251
O1626      O    0.2186686348   -0.0012152205    0.2111313132
O1629      O    0.2567907802    0.0410418820    0.2327674596
O1636      O    0.2321568619    0.0001507910    0.2712788189
O1638      O    0.2742147955   -0.0185540001    0.2319301199
O1620      O    0.1879231178    0.0395861458    0.1992461481
O1625      O    0.1714179891    0.0121917050    0.2250449056
C1640      C    0.1712132696    0.0285300053    0.2089806285
O1621      O    0.2236454602    0.0237040225    0.1658282578
O1623      O    0.2353157397   -0.0162244351    0.1652640085
C1642      C    0.2274263488    0.0035304772    0.1563876987
O1622      O    0.2293447556    0.0763931983    0.2579186753
O1624      O    0.2203035681    0.0754799986    0.2176217048
C1641      C    0.2221722135    0.0850081719    0.2378995000
O1644      O    0.2615707806   -0.0656814721    0.2156351805
O1645      O    0.2706119681   -0.0647682725    0.2559321510
C1646      C    0.2687439641   -0.0742964152    0.2356580525
O1649      O    0.3029924184   -0.0288744196    0.2743077077
O1653      O    0.3194975471   -0.0014799789    0.2485089502
C1654      C    0.3197022666   -0.0178182791    0.2645732273
O1657      O    0.2672700760   -0.0129922964    0.3077255980
O1658      O    0.2555997965    0.0269361613    0.3082898473
C1661      C    0.2634891874    0.0071812489    0.3171661571
C1732      C    0.2702117275    0.9495074107    0.4541030522
H1733      H    0.2988931562    0.9517945750    0.4823522613
H1734      H    0.2989901057    1.0087435357    0.4245581375
H1735      H    0.2438239932    0.9519393497    0.4234992763
C1736      C    0.2908710160    0.9601254631    0.4653308237
C1737      C    0.3012292380    0.9814447514    0.4546976782
C1738      C    0.2909257891    0.9921457893    0.4328356399
C1739      C    0.2702652038    0.9815264185    0.4216078460
C1740      C    0.2599082785    0.9602084485    0.4322410140
C1741      C    0.4387817871    0.9773630816    0.2820097769
H1742      H    0.4402746270    1.0044695922    0.3112242365
H1743      H    0.4975716664    0.9475490936    0.3136703517
H1744      H    0.4419725170    0.9478805110    0.2553186303
C1745      C    0.4488829501    0.9879060046    0.3034228147
C1746      C    0.4700416267    0.9771759814    0.3148183580
C1747      C    0.4810989792    0.9559020181    0.3047984424
C1748      C    0.4709965259    0.9453591059    0.2833840337
C1749      C    0.4498391396    0.9560891183    0.2719898614
D1816      D   -0.0400626103   -0.0002048175    0.9449883324
D1817      D   -0.0319006135   -0.0250274411    0.9513609302
D1818      D   -0.0087967642   -0.0157449580    0.9595442722
D1819      D   -0.0169587610    0.0090776656    0.9531716746
D1820      D   -0.0406046680   -0.0112182628    0.9603420832
D1821      D   -0.0175008187   -0.0019357797    0.9685254254
D1822      D   -0.0082547065   -0.0047315128    0.9441905214
D1823      D   -0.0313585558   -0.0140139958    0.9360071793
Zr1750    Zr   -0.0257100703   -0.0090605545    0.9557144359
D1824      D    0.0404653701    0.0378489334    1.0181729769
D1825      D    0.0498122277    0.0132679017    1.0237856488
D1826      D    0.0359901252    0.0039085893    1.0033315472
D1827      D    0.0266432675    0.0284896211    0.9977188754
D1828      D    0.0552318951    0.0276984765    1.0130753220
D1829      D    0.0414097926    0.0183391641    0.9926212205
D1830      D    0.0212236001    0.0140590463    1.0084292022
D1831      D    0.0350457027    0.0234183587    1.0288833038
Zr1762    Zr    0.0369919174    0.0205971224    1.0170930740
D1832      D    0.0331025708    0.0018701198    0.9364499415
D1833      D    0.0267160321    0.0263253603    0.9444735000
D1834      D    0.0327634153    0.0189310447    0.9694508313
D1835      D    0.0391499539   -0.0055241957    0.9614272726
D1836      D    0.0422435820    0.0178861622    0.9387646588
D1837      D    0.0482909651    0.0104918467    0.9637419901
D1838      D    0.0236224039    0.0029150022    0.9671361138
D1839      D    0.0175750208    0.0103093178    0.9421587826
Zr1763    Zr    0.0372911285    0.0055412292    0.9534976876
D1840      D   -0.0395588447    0.0197602988    1.0225968400
D1841      D   -0.0280180687    0.0067816998    1.0030306405
D1842      D   -0.0089347895   -0.0016979634    1.0198674182
D1843      D   -0.0204755656    0.0112806357    1.0394336177
D1844      D   -0.0406538696    0.0024336272    1.0157055994
D1845      D   -0.0215705904   -0.0060460360    1.0325423772
D1846      D   -0.0078397646    0.0156287083    1.0267586588
D1847      D   -0.0269230438    0.0241083715    1.0099218810
Zr1764    Zr   -0.0260092514    0.0059960104    1.0193134890
D1849      D    0.0032504261   -0.0323454833    0.9906972881
D1850      D    0.0279902962   -0.0243678074    0.9932085849
D1851      D    0.0324390183   -0.0426125841    1.0124918553
D1852      D    0.0091505297   -0.0503226453    0.9913721304
D1853      D    0.0338903998   -0.0423449694    0.9938834270
D1854      D    0.0265389147   -0.0246354221    1.0118170132
D1855      D    0.0017990446   -0.0326130981    1.0093057165
D1848      D    0.0076991481   -0.0505902601    1.0099805586
Zr1765    Zr    0.0169339224   -0.0385822210    0.9978207982
D1856      D   -0.0033502414    0.0357168008    0.9643997036
D1857      D   -0.0060349424    0.0420397229    0.9897697198
D1858      D   -0.0189506083    0.0644648095    0.9822977399
D1859      D   -0.0162659074    0.0581418874    0.9569277236
D1860      D   -0.0160049147    0.0324114349    0.9773569396
D1861      D   -0.0289205807    0.0548365214    0.9698849596
D1862      D   -0.0062959351    0.0677701754    0.9693405038
D1863      D    0.0066197309    0.0453450888    0.9768124838
Zr1780    Zr   -0.0056520452    0.0501194606    0.9749903784
H1807      H   -0.0596807054   -0.0034767149    0.9215609607
H1815      H   -0.0432037850    0.0204636463    0.9202738468
O1751      O   -0.0523961406    0.0097676318    0.9320728949
H1798      H    0.0439319951   -0.0778010733    0.9893686113
H1812      H    0.0389101175   -0.0638730868    0.9637629034
O1767      O    0.0447373757   -0.0609754791    0.9811111380
H1799      H    0.0608901464    0.0284264112    0.9190410384
H1814      H    0.0337921593    0.0391895648    0.9177272663
O1782      O    0.0477855335    0.0356119232    0.9295938293
H1804      H   -0.0305131882    0.0911133462    0.9830018867
H1813      H   -0.0301083056    0.0754156570    1.0078910971
O1784      O   -0.0335670818    0.0739679639    0.9897629519
H1806      H    0.0519812136   -0.0102944265    1.0523189005
H1810      H    0.0734385665   -0.0081476217    1.0334525443
O1787      O    0.0618381823    0.0022388248    1.0431478253
H1802      H   -0.0479114477   -0.0158099268    1.0556638188
H1809      H   -0.0414307399   -0.0367376980    1.0366667160
O1788      O   -0.0340448532   -0.0226724495    1.0458987050
H1794      H   -0.0301198602   -0.0354175847    0.9966165703
O1759      O   -0.0185580308   -0.0218177035    0.9927849397
H1797      H   -0.0022522780    0.0266770039    0.9342817446
O1760      O    0.0004973614    0.0194735650    0.9513040327
H1803      H   -0.0597717587    0.0303879335    1.0419851141
O1766      O   -0.0501510159    0.0362849605    1.0275300911
H1795      H    0.0572198620   -0.0156034127    0.9929714671
O1769      O    0.0404059119   -0.0081506282    0.9907100448
H1796      H   -0.0031440331    0.0472768811    1.0225085915
O1771      O    0.0002173646    0.0335657458    1.0108240215
H1811      H    0.0537325609   -0.0360983551    0.9350290803
O1775      O    0.0626916741   -0.0238583624    0.9453874149
H1808      H   -0.0322062477    0.0764691737    0.9420667386
O1779      O   -0.0341163680    0.0588577298    0.9480327111
H1800      H    0.0078790178    0.0888258952    0.9491960421
O1783      O    0.0127233873    0.0709164312    0.9470910174
H1801      H    0.0051889316   -0.0781371392    1.0233214632
O1791      O   -0.0001392730   -0.0604039387    1.0258173409
H1805      H    0.0585781961   -0.0477145576    1.0219851443
O1792      O    0.0414409782   -0.0498800434    1.0276661681
O1758      O    0.0110645125   -0.0220285063    0.9619871551
O1761      O   -0.0291240348    0.0196878678    0.9821011318
O1768      O    0.0107833685   -0.0079398255    1.0215078294
O1770      O    0.0298399080    0.0333549431    0.9800262369
O1752      O   -0.0299613114   -0.0505706383    0.9518433709
O1757      O   -0.0032259490   -0.0690814456    0.9782420416
C1772      C   -0.0194534024   -0.0682584663    0.9622980029
O1753      O   -0.0137802968   -0.0154961444    0.9166139198
O1755      O    0.0257246346   -0.0063430396    0.9152206949
C1774      C    0.0060162601   -0.0130653688    0.9068543305
O1754      O   -0.0642844457   -0.0056938111    1.0088028104
O1756      O   -0.0640981598   -0.0151372234    0.9689260249
C1773      C   -0.0731666541   -0.0124955775    0.9891820917
O1776      O    0.0755663229    0.0172310507    0.9640083662
O1777      O    0.0753800369    0.0266744630    1.0038851517
C1778      C    0.0844485612    0.0240334887    0.9836327517
O1781      O    0.0412431885    0.0621078778    1.0209678057
O1785      O    0.0145078261    0.0806186851    0.9945691350
C1786      C    0.0307352795    0.0797957059    1.0105131737
O1789      O    0.0250621739    0.0270333840    1.0561972568
O1790      O   -0.0144427575    0.0178802792    1.0575904817
C1793      C    0.0052656170    0.0246026084    1.0659568461
C1864      C    0.0476683408    0.0446729464    0.1998617447
H1865      H    0.0449149650    0.0739769335    0.2267936665
H1866      H   -0.0112996687    0.0749833416    0.1690302075
H1867      H    0.0457239469    0.0177847194    0.1704727084
C1868      C    0.0368304099    0.0659236103    0.2101462041
C1869      C    0.0156076010    0.0768332250    0.1990499625
C1870      C    0.0052229647    0.0664897444    0.1776682499
C1871      C    0.0160622194    0.0452377362    0.1673838270
C1872      C    0.0372837045    0.0343294658    0.1784800321
C1873      C    0.0463204142    0.1964388812    0.0263546194
H1874      H    0.0189931038    0.1994563989    0.0547014414
H1875      H    0.0752030498    0.2551885192    0.0557843680
H1876      H    0.0759495475    0.1981016970    0.0003534128
C1877      C    0.0355066219    0.2073909130    0.0469284043
C1878      C    0.0459014315    0.2285351202    0.0575210611
C1879      C    0.0671110899    0.2387270628    0.0475375515
C1880      C    0.0779248970    0.2277737060    0.0269624635
C1881      C    0.0675300726    0.2066308238    0.0163711098
C1882      C    0.2279138815    0.0240064183    0.0428682849
H1883      H    0.1986907341   -0.0026668990    0.0400014077
H1884      H    0.1996503607    0.0542023392   -0.0178245029
H1885      H    0.2548843683    0.0530862375    0.0408999476
C1886      C    0.2070311385    0.0137672189    0.0316948129
C1887      C    0.1968582125    0.0246347126    0.0098512363
C1888      C    0.2075704330    0.0457423875   -0.0008185937
C1889      C    0.2284544743    0.0559815578    0.0103562419
C1890      C    0.2386261019    0.0451140932    0.0321984548
C1891      C    0.2098746400    0.1957344560    0.2168121010
H1892      H    0.1807126118    0.1987620770    0.2432388574
H1893      H    0.1816062862    0.2566007702    0.1863638517
H1894      H    0.2367849018    0.1975570831    0.1879600441
C1895      C    0.1890256134    0.2070257485    0.2268730428
C1896      C    0.1788513839    0.2289321915    0.2159151748
C1897      C    0.1895277816    0.2395463020    0.1948945835
C1898      C    0.2103780923    0.2282536261    0.1848336688
C1899      C    0.2205510378    0.2063485664    0.1957915097
D1966      D    0.7948045603   -0.0357522881    0.7577529093
D1967      D    0.7896909229   -0.0273517680    0.7820612596
D1968      D    0.7806357479   -0.0041067552    0.7718170320
D1969      D    0.7857493852   -0.0125072754    0.7475086817
D1970      D    0.7802295144   -0.0365330897    0.7689165601
D1971      D    0.7711743392   -0.0132880770    0.7586723325
D1972      D    0.7952107938   -0.0033259536    0.7606533812
D1973      D    0.8042659689   -0.0265709663    0.7708976087
Zr1900    Zr    0.7843943271   -0.0212969113    0.7659728794
D1974      D    0.7187623698    0.0442462851    0.7170040506
D1975      D    0.7143637253    0.0538666720    0.7410034698
D1976      D    0.7353753069    0.0403330494    0.7506948770
D1977      D    0.7397739513    0.0307126625    0.7266954578
D1978      D    0.7240640808    0.0594780005    0.7262711263
D1979      D    0.7450756623    0.0459443778    0.7359625336
D1980      D    0.7300735958    0.0251013341    0.7414278012
D1981      D    0.7090620142    0.0386349567    0.7317363940
Zr1912    Zr    0.7208375336    0.0408973694    0.7342771261
D1982      D    0.8016892293    0.0388633283    0.7519441968
D1983      D    0.7925499360    0.0319609210    0.7281094176
D1984      D    0.7681299813    0.0376427170    0.7354872065
D1985      D    0.7772692747    0.0445451242    0.7593219857
D1986      D    0.7983479728    0.0479641885    0.7356326015
D1987      D    0.7739280181    0.0536459844    0.7430103903
D1988      D    0.7714712380    0.0285418567    0.7517988019
D1989      D    0.7958911925    0.0228600608    0.7444210130
Zr1913    Zr    0.7845464711    0.0427215023    0.7483277145
D1990      D    0.7169537141   -0.0371091571    0.7389840537
D1991      D    0.7367824563   -0.0248197145    0.7510188404
D1992      D    0.7202147507   -0.0056864773    0.7587145236
D1993      D    0.7003860084   -0.0179759200    0.7466797369
D1994      D    0.7247333286   -0.0379112353    0.7561336640
D1995      D    0.7081656229   -0.0187779981    0.7638293472
D1996      D    0.7124351361   -0.0048843992    0.7415649133
D1997      D    0.7290028418   -0.0240176363    0.7338692301
Zr1914    Zr    0.7206817260   -0.0231210994    0.7519216735
D1999      D    0.7504901761    0.0076329024    0.7881149166
D2000      D    0.7470832792    0.0326778483    0.7790062188
D2001      D    0.7289166012    0.0369582772    0.7971500321
D2002      D    0.7506839796    0.0137909481    0.8056661850
D2003      D    0.7472770828    0.0388358940    0.7965574872
D2004      D    0.7287227976    0.0308002315    0.7795987636
D2005      D    0.7321296945    0.0057552856    0.7887074614
D1998      D    0.7323234981    0.0119133312    0.8062587299
Zr1915    Zr    0.7435136743    0.0214609438    0.7937204573
D2006      D    0.7729266450    0.0008465535    0.7205582836
D2007      D    0.7475448354   -0.0024945101    0.7147662984
D2008      D    0.7539701908   -0.0156858248    0.6930575172
D2009      D    0.7793520005   -0.0123447611    0.6988495023
D2010      D    0.7605419982   -0.0122800877    0.7246434508
D2011      D    0.7669673537   -0.0254714024    0.7029346695
D2012      D    0.7663548376   -0.0025591836    0.6889723500
D2013      D    0.7599294822    0.0106321311    0.7106811312
Zr1930    Zr    0.7617145228   -0.0018605409    0.7065289306
H1957      H    0.8185401926   -0.0551764670    0.7616521122
H1965      H    0.8181850121   -0.0386072856    0.7370652262
O1901      O    0.8072793714   -0.0481162481    0.7482948003
H1948      H    0.7534723595    0.0494848961    0.8311727157
H1962      H    0.7781380857    0.0447988288    0.8172533878
O1917      O    0.7607078133    0.0503252392    0.8143270343
H1949      H    0.8169125227    0.0672665879    0.7239795069
H1964      H    0.8181622561    0.0396200331    0.7146290772
O1932      O    0.8063440982    0.0536356177    0.7176461510
H1954      H    0.7520528519   -0.0277171675    0.6672035227
H1963      H    0.7282833153   -0.0276970182    0.6830980094
O1934      O    0.7463592089   -0.0308100771    0.6844576147
H1956      H    0.6873831565    0.0556768480    0.7646627351
H1960      H    0.7055008636    0.0778997027    0.7612088824
O1937      O    0.6955766473    0.0657878783    0.7516134581
H1952      H    0.6863505593   -0.0459907452    0.7751408583
H1959      H    0.7061489453   -0.0387878597    0.7953210253
O1938      O    0.6961073320   -0.0316045169    0.7811267337
H1944      H    0.7454630560   -0.0264228255    0.7929009115
O1909      O    0.7482840971   -0.0147027293    0.7787819420
H1947      H    0.8031833414    0.0027014396    0.7290593958
O1910      O    0.7866857609    0.0051981772    0.7363025738
H1953      H    0.6976003279   -0.0581970844    0.7297098384
O1916      O    0.7113853075   -0.0481495527    0.7231836381
H1945      H    0.7462629806    0.0623435034    0.7688564178
O1919      O    0.7484266353    0.0452132378    0.7622665172
H1946      H    0.7148240230   -0.0003115324    0.7098755903
O1921      O    0.7270594361    0.0034909708    0.7231512816
H1961      H    0.8047518508    0.0602432376    0.7885685314
O1925      O    0.7936644574    0.0690201804    0.7761223732
H1958      H    0.7933678093   -0.0284152304    0.6812550698
O1929      O    0.7884632461   -0.0303226697    0.6989038467
H1950      H    0.7848520208    0.0121033702    0.6671032190
O1933      O    0.7878123095    0.0172467474    0.6846016597
H1951      H    0.7206774505    0.0093288096    0.8338952275
O1941      O    0.7173497647    0.0036862868    0.8166010379
H1955      H    0.7192883329    0.0633987225    0.8010437366
O1942      O    0.7141265042    0.0458577853    0.8041209295
O1908      O    0.7781687610    0.0161094321    0.7770981064
O1911      O    0.7568015619   -0.0256128349    0.7379828707
O1918      O    0.7185419714    0.0144010764    0.7639503529
O1920      O    0.7569441000    0.0343031322    0.7214674459
O1902      O    0.7905649113   -0.0251488061    0.8073127803
O1907      O    0.7649348255    0.0016579560    0.8247113209
C1922      C    0.7809796355   -0.0145166906    0.8244821950
O1903      O    0.8231789017   -0.0082498051    0.7712294188
O1905      O    0.8232776407    0.0318930687    0.7601678930
C1924      C    0.8323074103    0.0120830665    0.7677010934
O1904      O    0.7324696219   -0.0617308311    0.7652756826
O1906      O    0.7724177860   -0.0605883571    0.7740887736
C1923      C    0.7524201720   -0.0702799030    0.7721958850
O1926      O    0.7727585752    0.0813312340    0.7349737054
O1927      O    0.7328104112    0.0801887600    0.7261606143
C1928      C    0.7528043615    0.0898802507    0.7280528854
O1931      O    0.7146632858    0.0447492090    0.6929366077
O1935      O    0.7402933717    0.0179424469    0.6755380671
C1936      C    0.7242485617    0.0341170935    0.6757671930
O1939      O    0.6820492954    0.0278502080    0.7290199691
O1940      O    0.6819505564   -0.0122926658    0.7400814949
C1943      C    0.6729207868    0.0075173363    0.7325482945
C2014      C    0.7054296856    0.0553591382    0.5603150890
H2015      H    0.7318197355    0.0848622858    0.5569561339
H2016      H    0.6741725851    0.0847506270    0.5006885106
H2017      H    0.6765498605    0.0281972347    0.5589225601
C2018      C    0.7153425591    0.0765768912    0.5490328221
C2019      C    0.7040935701    0.0871553462    0.5275725582
C2020      C    0.6829299522    0.0765144250    0.5173956200
C2021      C    0.6730171243    0.0552953560    0.5286792516
C2022      C    0.6842660677    0.0447182171    0.5501381509
C2023      C    0.6975100803    0.2320268291    0.7062031924
H2024      H    0.6983034283    0.2597807166    0.6765240923
H2025      H    0.7564274198    0.2037638538    0.6772352770
H2026      H    0.7014116953    0.2020217562    0.7335747811
C2027      C    0.7072381634    0.2431781903    0.6849532439
C2028      C    0.7284431238    0.2330068372    0.6745272274
C2029      C    0.7399191070    0.2116822461    0.6853528001
C2030      C    0.7301897346    0.2005308341    0.7066040598
C2031      C    0.7089860635    0.2107022380    0.7170287651
C2032      C    0.5341379331    0.0477746851    0.7246907275
H2033      H    0.5061761066    0.0453921959    0.6957263202
H2034      H    0.5634661016   -0.0114827204    0.6957463101
H2035      H    0.5644370508    0.0454363746    0.7513482023
C2036      C    0.5230375878    0.0370996861    0.7038461825
C2037      C    0.5335927275    0.0157727370    0.6934281945
C2038      C    0.5552493219    0.0051209913    0.7038571575
C2039      C    0.5663496876    0.0157973114    0.7247030096
C2040      C    0.5557945275    0.0371229394    0.7351196905
C2041      C    0.5302603429    0.2313962618    0.5530298786
H2042      H    0.5586807958    0.2589023857    0.5499821699
H2043      H    0.5568569070    0.2034988795    0.4929108603
H2044      H    0.5039597705    0.2016667788    0.5512881016
C2045      C    0.5504291782    0.2424658034    0.5418451330
C2046      C    0.5600021557    0.2324255828    0.5202080613
C2047      C    0.5494039318    0.2113147696    0.5097560081
C2048      C    0.5292338525    0.2002451883    0.5209421092
C2049      C    0.5196621190    0.2102854487    0.5425778254
C2050      C    0.5571304276    0.5282191133    0.2075979795
H2051      H    0.5550676180    0.5006223156    0.1788745360
H2052      H    0.4967359746    0.5564261839    0.1777567384
H2053      H    0.5543806119    0.5580626366    0.2339443535
C2054      C    0.5464559163    0.5171472641    0.1867477411
C2055      C    0.5247193234    0.5272984972    0.1760074326
C2056      C    0.5136582041    0.5485234511    0.1861189371
C2057      C    0.5243340657    0.5595953488    0.2069704829
C2058      C    0.5460693083    0.5494440672    0.2177094841
C2059      C    0.0202740336    0.5494260596    0.6792227825
H2060      H   -0.0066756355    0.5794426150    0.6818561943
H2061      H    0.0497475074    0.5759375592    0.7394124301
H2062      H    0.0495713591    0.5215212735    0.6813857042
C2063      C    0.0097655308    0.5704787416    0.6901858371
C2064      C    0.0203725704    0.5800206754    0.7118487373
C2065      C    0.0414899184    0.5685083000    0.7225475714
C2066      C    0.0519984270    0.5474543517    0.7115831571
C2067      C    0.0413913816    0.5379136842    0.6899216166
C2068      C    0.7923109991    0.9679544528    0.9495717066
H2069      H    0.7652783312    0.9390512116    0.9528132493
H2070      H    0.8236101280    0.9369670009    1.0084057578
H2071      H    0.8218380081    0.9943879828    0.9510172398
C2072      C    0.7820435607    0.9468224323    0.9606629910
C2073      C    0.7933080799    0.9356691450    0.9818375881
C2074      C    0.8148410700    0.9456502942    0.9919206439
C2075      C    0.8251084646    0.9667836641    0.9808280274
C2076      C    0.8138439893    0.9779356020    0.9596547625
C2077      C    0.9443252025    0.9907130862    0.7634098737
H2078      H    0.9480936581    1.0173793434    0.7928313434
H2079      H    1.0046249311    0.9598545745    0.7907411751
H2080      H    0.9453606582    0.9615875419    0.7361668089
C2081      C    0.9559436417    1.0008439307    0.7842572560
C2082      C    0.9776457727    0.9897379687    0.7940946803
C2083      C    0.9877291304    0.9685001812    0.7830823013
C2084      C    0.9761093147    0.9583693802    0.7622336358
C2085      C    0.9544085602    0.9694752987    0.7523974947
C2086      C    0.9577572194    0.7851277049    0.9171392839
H2087      H    0.9290627711    0.7579326472    0.9203071642
H2088      H    0.9317165285    0.8133026229    0.9773812563
H2089      H    0.9843774290    0.8145669138    0.9187719061
C2090      C    0.9375220325    0.7742766572    0.9284110732
C2091      C    0.9281495727    0.7844163204    0.9500928137
C2092      C    0.9390138333    0.8054088871    0.9605017214
C2093      C    0.9592502452    0.8162599746    0.9492285588
C2094      C    0.9686214801    0.8061202715    0.9275481916
C2095      C    0.1900585794    0.5326611633    0.5123193130
H2096      H    0.1927953226    0.5628484854    0.4853024079
H2097      H    0.2500314341    0.5584170359    0.5420055151
H2098      H    0.1920996916    0.5045267240    0.5417020873
C2099      C    0.2010454670    0.5536909299    0.5018066359
C2100      C    0.2226299338    0.5629613600    0.5124906663
C2101      C    0.2332272502    0.5511995674    0.5336883925
C2102      C    0.2222390174    0.5301685334    0.5442010596
C2103      C    0.2006558957    0.5208993707    0.5335170392
C2104      C    0.7709732236    0.8185603060    0.7851806889
H2105      H    0.7449737335    0.8153617641    0.8147687260
H2106      H    0.8009400987    0.7572485672    0.8129270672
H2107      H    0.7993596598    0.8168731200    0.7578028209
C2108      C    0.7610766645    0.8071027452    0.8061869941
C2109      C    0.7718612895    0.7850359917    0.8161733651
C2110      C    0.7925442333    0.7744278464    0.8051518141
C2111      C    0.8024407656    0.7858868041    0.7841442261
C2112      C    0.7916561674    0.8079521607    0.7741591378
H3063      H    0.6444692219    0.0498863039    0.7338795044
H3064      H    0.5988195461    0.0534337652    0.7305189416
H3065      H    0.5948012249   -0.0265731835    0.7233707355
H3066      H    0.6404517227   -0.0301181481    0.7267309851
C3067      C    0.6453030188    0.0096630816    0.7305151987
C3068      C    0.6335973681    0.0331519383    0.7315801947
C3069      C    0.6079316563    0.0351461379    0.7296906441
C3070      C    0.5939674555    0.0136515661    0.7267361054
C3071      C    0.6056714336   -0.0098367632    0.7256704246
C3072      C    0.6313388180   -0.0118314902    0.7275606600
H3053      H    0.7198476057    0.1227757971    0.7510744652
H3054      H    0.7106207771    0.1679195878    0.7423242671
H3055      H    0.7631482185    0.1676355072    0.6835818929
H3056      H    0.7723739692    0.1224912131    0.6923344286
C3057      C    0.7466848539    0.1198222474    0.7222488431
C3058      C    0.7293238277    0.1325950284    0.7363018985
C3059      C    0.7241364900    0.1579763316    0.7313821032
C3060      C    0.7363092422    0.1705888374    0.7124081021
C3061      C    0.7536701254    0.1578179063    0.6983553468
C3062      C    0.7588576062    0.1324347533    0.7032748421
H3043      H    0.7177814543    0.0880722838    0.6007573009
H3044      H    0.7251520606    0.0797533695    0.6459752792
H3045      H    0.7118956318    0.0014025058    0.6353249095
H3046      H    0.7045247636    0.0097240705    0.5901066977
C3047      C    0.7106948146    0.0494160571    0.5926161798
C3048      C    0.7164942034    0.0691028837    0.6083240132
C3049      C    0.7206380377    0.0644254411    0.6337469778
C3050      C    0.7189834326    0.0400601746    0.6434661022
C3051      C    0.7131838070    0.0203734535    0.6277601129
C3052      C    0.7090402095    0.0250507906    0.6023353042
H3033      H    0.9138746943    0.0261320515    0.7366473276
H3034      H    0.8688186050    0.0347280057    0.7383727747
H3035      H    0.8627576540   -0.0233377022    0.7944641180
H3036      H    0.9078144958   -0.0319323735    0.7927364829
C3037      C    0.9136503264   -0.0034349729    0.7645849784
C3038      C    0.9026858774    0.0153055669    0.7493020616
C3039      C    0.8773538681    0.0201381900    0.7502723013
C3040      C    0.8629822864    0.0062311256    0.7665259887
C3041      C    0.8739449687   -0.0125092482    0.7818083162
C3042      C    0.8992787448   -0.0173420372    0.7808386658
H3023      H    0.7580221082   -0.1462050372    0.8203697230
H3024      H    0.7503669414   -0.1003396117    0.8150128217
H3025      H    0.7653724794   -0.1055145181    0.7370054481
H3026      H    0.7730278549   -0.1513803554    0.7423649667
C3027      C    0.7660009994   -0.1516488320    0.7817007570
C3028      C    0.7596298956   -0.1372982137    0.8021238333
C3029      C    0.7553260784   -0.1115112124    0.7991117339
C3030      C    0.7573923962   -0.1000707650    0.7756758169
C3031      C    0.7637637160   -0.1144195361    0.7552529771
C3032      C    0.7680673172   -0.1402083846    0.7582648399
H3013      H    0.7987749684   -0.0574574741    0.8587830356
H3014      H    0.8029254364   -0.0638780680    0.9045970333
H3015      H    0.7745159407    0.0108970802    0.9152710594
H3016      H    0.7703668364    0.0173156504    0.8694560501
C3017      C    0.7843118020   -0.0196713279    0.8612667428
C3018      C    0.7934648718   -0.0424974386    0.8711475385
C3019      C    0.7957983876   -0.0461069755    0.8969056665
C3020      C    0.7889788325   -0.0268909099    0.9127871588
C3021      C    0.7798265814   -0.0040651432    0.9029080340
C3022      C    0.7774922470   -0.0004552624    0.8771482351
H3003      H   -0.0990616205   -0.0402188954    1.0208575857
H3004      H   -0.1436827718   -0.0493082795    1.0171937805
H3005      H   -0.1489968676   -0.0054913663    0.9491516354
H3006      H   -0.1043750246    0.0035972724    0.9528179158
C3007      C   -0.0989396372   -0.0177453821    0.9870655086
C3008      C   -0.1099917298   -0.0326191115    1.0051630900
C3009      C   -0.1350792059   -0.0377291953    1.0031029769
C3010      C   -0.1491185523   -0.0279665312    0.9829446104
C3011      C   -0.1380682445   -0.0130928394    0.9648474816
C3012      C   -0.1129789835   -0.0079827180    0.9669071421
H2993      H    0.0038979547   -0.1128860320    0.9840363487
H2994      H   -0.0044448613   -0.1581285232    0.9789166624
H2995      H   -0.0641029020   -0.1391120404    0.9274898718
H2996      H   -0.0557584787   -0.0938694622    0.9326116776
C2997      C   -0.0254103379   -0.1005605333    0.9586422672
C2998      C   -0.0109848322   -0.1186272057    0.9716595189
C2999      C   -0.0156757264   -0.1440638992    0.9687809527
C3000      C   -0.0347928193   -0.1514379585    0.9528842945
C3001      C   -0.0492187629   -0.1333730519    0.9398675118
C3002      C   -0.0445274308   -0.1079345925    0.9427456090
H2983      H   -0.0398126795   -0.0020820822    0.8817537799
H2984      H   -0.0511479916   -0.0009618022    0.8367038702
H2985      H    0.0234764387   -0.0212448274    0.8191948304
H2986      H    0.0348097304   -0.0223639197    0.8642459097
C2987      C   -0.0017957664   -0.0122934488    0.8758051150
C2988      C   -0.0259613237   -0.0062768982    0.8680606367
C2989      C   -0.0323340858   -0.0056470135    0.8427320691
C2990      C   -0.0145422008   -0.0110339513    0.8251438958
C2991      C    0.0096227544   -0.0170497988    0.8328867167
C2992      C    0.0159961186   -0.0176803866    0.8582169417
H2973      H    0.0746833663    0.1088580667    1.0183485970
H2974      H    0.0807636462    0.1543589844    1.0245280980
H2975      H    0.0023707995    0.1673769110    1.0185181590
H2976      H   -0.0037070917    0.1218750084    1.0123381732
C2977      C    0.0351094490    0.1125331205    1.0149592802
C2978      C    0.0588567141    0.1216669106    1.0183866524
C2979      C    0.0622749473    0.1472490415    1.0218608346
C2980      C    0.0419462448    0.1637014666    1.0219085130
C2981      C    0.0181995747    0.1545694215    1.0184808140
C2982      C    0.0147807465    0.1289855456    1.0150069586
H2963      H    0.1695316053    0.0447797566    0.9678528912
H2964      H    0.1247315932    0.0445404226    0.9574030176
H2965      H    0.1117750238    0.0038868142    1.0256320454
H2966      H    0.1565761642    0.0041269034    1.0360796727
C2967      C    0.1658434717    0.0244688300    1.0026173423
C2968      C    0.1568894030    0.0358303705    0.9804988823
C2969      C    0.1317013724    0.0356955587    0.9746238415
C2970      C    0.1154633021    0.0241993713    0.9908666457
C2971      C    0.1244158083    0.0128374756    1.0129841494
C2972      C    0.1496054013    0.0129726426    1.0188601466
H2953      H   -0.0258330633    0.0346260795    1.1437108108
H2954      H   -0.0306204821    0.0254774599    1.0987429908
H2955      H    0.0471623292    0.0352153709    1.0896294938
H2956      H    0.0519473048    0.0443643979    1.1345981333
C2957      C    0.0133553680    0.0400642360    1.1419547377
C2958      C   -0.0098568567    0.0347540407    1.1318732530
C2959      C   -0.0125482146    0.0296105390    1.1065908549
C2960      C    0.0079724684    0.0297761086    1.0913859354
C2961      C    0.0311840944    0.0350864985    1.1014656425
C2962      C    0.0338760510    0.0402298055    1.1267498182
H2943      H    0.2479259999    0.1696722945    0.2421779875
H2944      H    0.2530054513    0.1239426619    0.2508874801
H2945      H    0.1841190127    0.1110701727    0.2125336278
H2946      H    0.1790413475    0.1568009331    0.2038257049
C2947      C    0.2131676921    0.1660841013    0.2224588981
C2948      C    0.2339613370    0.1568450235    0.2356893929
C2949      C    0.2368168498    0.1311343289    0.2405860926
C2950      C    0.2188791614    0.1146585266    0.2322527029
C2951      C    0.1980857110    0.1238959952    0.2190232028
C2952      C    0.1952300037    0.1496082990    0.2141255084
H2933      H    0.0913483228    0.0741733146    0.1823168156
H2934      H    0.1368064834    0.0682342336    0.1856718051
H2935      H    0.1275331065   -0.0009713027    0.2265271798
H2936      H    0.0820745788    0.0049703112    0.2231713757
C2937      C    0.0838807796    0.0399412648    0.2025345944
C2938      C    0.0992691036    0.0577261689    0.1919923632
C2939      C    0.1248270955    0.0543868166    0.1938788951
C2940      C    0.1350008308    0.0332616869    0.2063077789
C2941      C    0.1196142664    0.0154771426    0.2168504741
C2942      C    0.0940545149    0.0188161350    0.2149634781
H2923      H    0.1883325192    0.0146651850    0.0750707615
H2924      H    0.1881357960    0.0064323863    0.1207127922
H2925      H    0.2670094055    0.0128709273    0.1241851457
H2926      H    0.2672037394    0.0211030644    0.0785422513
C2927      C    0.2277803323    0.0183974712    0.0739645059
C2928      C    0.2055521212    0.0142730546    0.0858215277
C2929      C    0.2054418312    0.0096442305    0.1114829281
C2930      C    0.2275598980    0.0091394244    0.1252914776
C2931      C    0.2497878344    0.0132629192    0.1134360712
C2932      C    0.2498983990    0.0178926650    0.0877730554
H2913      H    0.2454161603   -0.0338153814    0.3401102067
H2914      H    0.2483412324   -0.0448917687    0.3851997295
H2915      H    0.2883398315    0.0225239565    0.3986639322
H2916      H    0.2854139750    0.0335981162    0.3535732488
C2917      C    0.2652323401    0.0005814588    0.3440341278
C2918      C    0.2548100872   -0.0214845122    0.3529269006
C2919      C    0.2564549020   -0.0277118050    0.3782777031
C2920      C    0.2685220511   -0.0118737913    0.3947398753
C2921      C    0.2789447528    0.0101911874    0.3858486615
C2922      C    0.2772994892    0.0164194724    0.3604963001
H2903      H    0.4060289878   -0.0373727915    0.2405819986
H2904      H    0.3605957403   -0.0355346866    0.2339286884
H2905      H    0.3524548445   -0.0030826004    0.3060028500
H2906      H    0.3978889689   -0.0049222829    0.3126542589
C2907      C    0.4047881300   -0.0212613404    0.2770321612
C2908      C    0.3943023119   -0.0298670593    0.2548998932
C2909      C    0.3687582543   -0.0288335932    0.2511595119
C2910      C    0.3536959237   -0.0191938571    0.2695508429
C2911      C    0.3641800240   -0.0105887487    0.2916828047
C2912      C    0.3897257994   -0.0116216043    0.2954234922
H2893      H    0.3404895644    0.0108894057    0.4324995395
H2894      H    0.3857933023    0.0115532716    0.4399603355
H2895      H    0.3800412925   -0.0462717783    0.4963434235
H2896      H    0.3347370009   -0.0469334431    0.4888811731
C2897      C    0.3347923227   -0.0180638665    0.4602253088
C2898      C    0.3491473575   -0.0016217683    0.4464724325
C2899      C    0.3746185270   -0.0012486680    0.4506674214
C2900      C    0.3857387685   -0.0173179824    0.4686158705
C2901      C    0.3713853932   -0.0337594003    0.4823692034
C2902      C    0.3459125642   -0.0341331810    0.4781737579
H2883      H    0.4855789155   -0.0355598056    0.4011106311
H2884      H    0.4845568851   -0.0495379082    0.3572947750
H2885      H    0.4569464821    0.0233263311    0.3332692020
H2886      H    0.4579688396    0.0373021905    0.3770865080
C2887      C    0.4718381600    0.0017418413    0.3918268799
C2888      C    0.4793129622   -0.0226717545    0.3862612361
C2889      C    0.4787381375   -0.0305304425    0.3616264853
C2890      C    0.4706886566   -0.0139765098    0.3425533355
C2891      C    0.4632133815    0.0104360739    0.3481174917
C2892      C    0.4637886791    0.0182957740    0.3727537301
H2873      H    0.5035837860    0.0443995500    0.6583541339
H2874      H    0.4956670176    0.0391853009    0.6130687660
H2875      H    0.5436573003   -0.0259942272    0.6144019466
H2876      H    0.5515731450   -0.0207775331    0.6596878149
C2877      C    0.5280709153    0.0121352697    0.6618410155
C2878      C    0.5123536964    0.0289921554    0.6487334875
C2879      C    0.5079029048    0.0260603510    0.6232725942
C2880      C    0.5191684843    0.0062708360    0.6109152197
C2881      C    0.5348856608   -0.0105856311    0.6240209159
C2882      C    0.5393364947   -0.0076542453    0.6494836410
H2863      H    0.4780922890    0.1279854865    0.5030072749
H2864      H    0.4848505969    0.1727417732    0.5125004870
H2865      H    0.5632183150    0.1588849852    0.5147783350
H2866      H    0.5564574515    0.1141283480    0.5052854893
C2867      C    0.5168540821    0.1182701119    0.5035545598
C2868      C    0.4967236760    0.1347496641    0.5055830276
C2869      C    0.5005237095    0.1599129974    0.5109205287
C2870      C    0.5244549649    0.1686008479    0.5142300992
C2871      C    0.5445852797    0.1521229110    0.5122025587
C2872      C    0.5407853375    0.1269579624    0.5068641304
H2853      H    0.6516474576    0.0103274902    0.5170994814
H2854      H    0.6072851183   -0.0002204292    0.5154563347
H2855      H    0.5881993412    0.0750184510    0.5363274839
H2856      H    0.6325629517    0.0855640188    0.5379705735
C2857      C    0.6448675852    0.0486027898    0.5276366765
C2858      C    0.6377596396    0.0244860873    0.5213070273
C2859      C    0.6128176514    0.0185559695    0.5203833826
C2860      C    0.5949795478    0.0367418854    0.5257889721
C2861      C    0.6020859314    0.0608577107    0.5321190436
C2862      C    0.6270294817    0.0667887057    0.5330422660
H2843      H    0.1810890808    0.2466849083    1.1409270149
H2844      H    0.1880612213    0.2461910334    1.0954229421
H2845      H    0.2580273801    0.2085209484    1.1089336123
H2846      H    0.2510532225    0.2090165255    1.1544379605
C2847      C    0.2156367122    0.2278808353    1.1505159723
C2848      C    0.1979280812    0.2383313993    1.1339235302
C2849      C    0.2018483574    0.2380536788    1.1083397485
C2850      C    0.2234779214    0.2273249614    1.0993443259
C2851      C    0.2411867858    0.2168750620    1.1159350287
C2852      C    0.2372662762    0.2171521179    1.1415205496
H2833      H    0.1613522772    0.2131140175    1.0288607624
H2834      H    0.1184574132    0.2003462319    1.0369009203
H2835      H    0.0912337771    0.2712276576    1.0069331140
H2836      H    0.1341301496    0.2839936579    0.9988943063
C2837      C    0.1504122056    0.2493486278    1.0133762305
C2838      C    0.1460045698    0.2258324686    1.0240610329
C2839      C    0.1218876128    0.2186543279    1.0285814494
C2840      C    0.1021743391    0.2349912428    1.0224174117
C2841      C    0.1065805078    0.2585068598    1.0117335756
C2842      C    0.1306989320    0.2656855427    1.0072121929
H2823      H    0.2652552971    0.1321815993    0.9767521954
H2824      H    0.2550096904    0.0870205930    0.9761609921
H2825      H    0.2176941249    0.0945586420    1.0454632457
H2826      H    0.2279415381    0.1397199383    1.0460525982
C2827      C    0.2472358042    0.1387630867    1.0114388811
C2828      C    0.2548448429    0.1239462301    0.9917902881
C2829      C    0.2490843845    0.0985552777    0.9914582155
C2830      C    0.2357135921    0.0879772083    1.0107746897
C2831      C    0.2281048218    0.1027921962    1.0304232693
C2832      C    0.2338650118    0.1281850172    1.0307553552
H2813      H    0.3662739109    0.2174503567    0.9481900724
H2814      H    0.4116820021    0.2221667768    0.9474645025
H2815      H    0.4059343405    0.2851816256    0.9958809777
H2816      H    0.3605257055    0.2804635432    0.9966045846
C2817      C    0.3605723364    0.2486628451    0.9724430816
C2818      C    0.3749554821    0.2322740509    0.9586285985
C2819      C    0.4004853245    0.2349260821    0.9582207598
C2820      C    0.4116361309    0.2539672841    0.9716277229
C2821      C    0.3972546603    0.2703563620    0.9854415067
C2822      C    0.3717231429    0.2677040471    0.9858500447
H2803      H    0.2786626864    0.4000023832    0.9190666848
H2804      H    0.2699088478    0.3550747162    0.9270854885
H2805      H    0.2474618116    0.3724277196    1.0011507443
H2806      H    0.2562170230    0.4173554116    0.9931297207
C2807      C    0.2679842942    0.4114766365    0.9555986608
C2808      C    0.2718329141    0.3939661900    0.9370320248
C2809      C    0.2669112417    0.3687064743    0.9415407731
C2810      C    0.2581397972    0.3609532522    0.9646169525
C2811      C    0.2542914909    0.3784618419    0.9831837840
C2812      C    0.2592128498    0.4037234145    0.9786748402
H2793      H    0.4434427149    0.3798063485    0.9629175875
H2794      H    0.4416115820    0.3342627401    0.9544797160
H2795      H    0.5042003381    0.3205474653    1.0037571438
H2796      H    0.5060299090    0.3660922366    1.0121931553
C2797      C    0.4748499302    0.3757851825    0.9880813457
C2798      C    0.4567399579    0.3668353242    0.9718563640
C2799      C    0.4557107430    0.3412292172    0.9671124302
C2800      C    0.4727912910    0.3245687911    0.9785930944
C2801      C    0.4909012935    0.3335170623    0.9948170999
C2802      C    0.4919304782    0.3591247565    0.9995620099
H2783      H    0.3826106112    0.4609159711    0.9999667210
H2784      H    0.3371117028    0.4620036015    0.9938238116
H2785      H    0.3456370312    0.4808121556    0.9163293417
H2786      H    0.3911363247    0.4797245009    0.9224748758
C2787      C    0.3897066832    0.4702518299    0.9616031410
C2788      C    0.3745171965    0.4652698183    0.9816610219
C2789      C    0.3489362910    0.4658814972    0.9782070078
C2790      C    0.3385408025    0.4714750087    0.9546942954
C2791      C    0.3537285252    0.4764575628    0.9346366312
C2792      C    0.3793111946    0.4758453415    0.9380904286
H2773      H    0.5424952105    0.6268603388    1.0512059811
H2774      H    0.5337206925    0.5844336061    1.0354139870
H2775      H    0.5145930721    0.6166700447    0.9633779779
H2776      H    0.5233677584    0.6590964551    0.9791726018
C2777      C    0.5334785234    0.6456202279    1.0161724394
C2778      C    0.5363889046    0.6246288512    1.0319828017
C2779      C    0.5314554154    0.6007753256    1.0231037921
C2780      C    0.5236110184    0.5979094010    0.9984127279
C2781      C    0.5206998285    0.6188991060    0.9826022302
C2782      C    0.5256341264    0.6427543033    0.9914813752
H2763      H    0.5589849791    0.4995569310    1.0999989638
H2764      H    0.5620352655    0.5158379098    1.1429169933
H2765      H    0.4830293195    0.5154131165    1.1475525792
H2766      H    0.4799814142    0.4991324688    1.1046335637
C2767      C    0.5192932686    0.4983302297    1.0996440355
C2768      C    0.5423609951    0.5030269812    1.1104082299
C2769      C    0.5440756541    0.5121807669    1.1345380915
C2770      C    0.5227226812    0.5166389544    1.1479077576
C2771      C    0.4996553670    0.5119433768    1.1371449445
C2772      C    0.4979402958    0.5027884172    1.1130137016
H2753      H    0.7405160959    0.3849046823    0.4608022001
H2754      H    0.7470901826    0.4307486117    0.4569324627
H2755      H    0.8068275645    0.4243041633    0.5108147532
H2756      H    0.8002511513    0.3784598593    0.5146833046
C2757      C    0.7699747209    0.3788274763    0.4879832210
C2758      C    0.7550300891    0.3935289444    0.4717475590
C2759      C    0.7587264109    0.4193038546    0.4695721561
C2760      C    0.7773683157    0.4303813573    0.4836319580
C2761      C    0.7923125717    0.4156817383    0.4998676856
C2762      C    0.7886166257    0.3899049790    0.5020430229
H2743      H    0.8097220878    0.2496835642    0.3352449069
H2744      H    0.8021426430    0.2463450337    0.3805804164
H2745      H    0.7343738330    0.2887315361    0.3697727696
H2746      H    0.7419557815    0.2920693003    0.3244370190
C2747      C    0.7763105419    0.2710837360    0.3270178375
C2748      C    0.7932303419    0.2582290694    0.3428029376
C2749      C    0.7889687288    0.2563522967    0.3682919794
C2750      C    0.7677863029    0.2673297131    0.3779999305
C2751      C    0.7508667863    0.2801845834    0.3622166688
C2752      C    0.7551281160    0.2820611525    0.3367257886
H2733      H    0.7538308563    0.1578645964    0.5205257385
H2734      H    0.7444799566    0.1155220227    0.5374153608
H2735      H    0.6764354042    0.1164269800    0.4947400939
H2736      H    0.6857882810    0.1587703898    0.4778520010
C2737      C    0.7203921508    0.1609538531    0.4981366132
C2738      C    0.7368917595    0.1487938874    0.5148819713
C2739      C    0.7316340737    0.1249875923    0.5243777737
C2740      C    0.7098759214    0.1133373125    0.5171293805
C2741      C    0.6933759665    0.1254959264    0.5003852877
C2742      C    0.6986339985    0.1493035733    0.4908882200
H2723      H    0.6440721976    0.2154795440    0.5485429470
H2724      H    0.5986952112    0.2111105887    0.5506567208
H2725      H    0.5890003597    0.2602588059    0.4866070219
H2726      H    0.6343782805    0.2646267639    0.4844955604
C2727      C    0.6420508750    0.2403246664    0.5163871915
C2728      C    0.6320177154    0.2252794547    0.5349868648
C2729      C    0.6065052854    0.2228233638    0.5361751144
C2730      C    0.5910219196    0.2354119513    0.5187635235
C2731      C    0.6010533800    0.2504572638    0.5001645496
C2732      C    0.6265675091    0.2529132539    0.4989756006
H2713      H    0.6962075744    0.2808478354    0.6057442543
H2714      H    0.6959727384    0.2658589941    0.6497848407
H2715      H    0.7612402802    0.2210582883    0.6378473498
H2716      H    0.7614727602    0.2360482861    0.5938063361
C2717      C    0.7288552037    0.2593819365    0.5970330895
C2718      C    0.7104414560    0.2677621680    0.6127718767
C2719      C    0.7103096136    0.2593347080    0.6375328229
C2720      C    0.7285918465    0.2425258100    0.6465590069
C2721      C    0.7470049822    0.2341447422    0.6308217724
C2722      C    0.7471374366    0.2425730386    0.6060592735
H2703      H    0.7883042950    0.3948178294    0.2902944692
H2704      H    0.7910088748    0.3485994865    0.2966967507
H2705      H    0.7672487138    0.3385970193    0.2206864053
H2706      H    0.7645442785    0.3848163460    0.2142865597
C2707      C    0.7762565265    0.3926950816    0.2518916262
C2708      C    0.7836967645    0.3825118174    0.2750595790
C2709      C    0.7852171719    0.3565263539    0.2786588840
C2710      C    0.7792978374    0.3407199670    0.2590905299
C2711      C    0.7718572422    0.3509015294    0.2359233011
C2712      C    0.7703371920    0.3768886948    0.2323232721
H2693      H    0.7519102671    0.5284506136    0.4151688358
H2694      H    0.7487326791    0.5346074962    0.3692701156
H2695      H    0.8028123686    0.4756507792    0.3602425500
H2696      H    0.8059887461    0.4694960364    0.4061422452
C2697      C    0.7791468855    0.4985894485    0.4135136009
C2698      C    0.7630503470    0.5168941543    0.4031461240
C2699      C    0.7612640918    0.5203555963    0.3773403711
C2700      C    0.7755739853    0.5055125171    0.3618979241
C2701      C    0.7916706061    0.4872086870    0.3722637333
C2702      C    0.7934567789    0.4837463692    0.3980711538
H2683      H    0.6409097790    0.5616516996    0.1932247472
H2684      H    0.5954232257    0.5607802609    0.1873232653
H2685      H    0.5927199238    0.4970728965    0.2374571664
H2686      H    0.6382072866    0.4979459646    0.2433567232
C2687      C    0.6423908856    0.5298535094    0.2186587716
C2688      C    0.6303614028    0.5475180697    0.2029061732
C2689      C    0.6047874144    0.5470278073    0.1995882815
C2690      C    0.5912387698    0.5288729515    0.2120228359
C2691      C    0.6032666115    0.5112082569    0.2277745487
C2692      C    0.6288422409    0.5116986535    0.2310933261
H2673      H    0.7352313921    0.6658913046    0.1964668546
H2674      H    0.7394315602    0.6200506172    0.2049414090
H2675      H    0.7117056533    0.6303339116    0.2784749000
H2676      H    0.7075068289    0.6761750206    0.2699981430
C2677      C    0.7211069133    0.6738875583    0.2327045685
C2678      C    0.7300817862    0.6581077200    0.2144155594
C2679      C    0.7324432480    0.6323346780    0.2191805446
C2680      C    0.7258298408    0.6223373299    0.2422353694
C2681      C    0.7168557874    0.6381154708    0.2605246008
C2682      C    0.7144935061    0.6638902102    0.2557593933
H2663      H    0.9739460577    0.6524691034    0.7243526250
H2664      H    0.9783896221    0.6079050225    0.7123741046
H2665      H    1.0565284775    0.6105766075    0.7270305181
H2666      H    1.0520825005    0.6551414263    0.7390081995
C2667      C    1.0127375075    0.6565800476    0.7324269777
C2668      C    0.9920205386    0.6432988812    0.7249391673
C2669      C    0.9945191674    0.6182435770    0.7182044151
C2670      C    1.0177353146    0.6064653353    0.7189567445
C2671      C    1.0384522085    0.6197449828    0.7264434814
C2672      C    1.0359536547    0.6448018060    0.7331793071
H2653      H    0.9843086271    0.7484244004    0.6255176770
H2654      H    0.9935180259    0.7425317257    0.5809303871
H2655      H    1.0631995279    0.7782773454    0.5917537837
H2656      H    1.0539875768    0.7841695209    0.6363412534
C2657      C    1.0185749577    0.7666632799    0.6337060587
C2658      C    1.0015757329    0.7549573300    0.6181269398
C2659      C    1.0067537718    0.7516445149    0.5930585618
C2660      C    1.0289321804    0.7600369123    0.5835653887
C2661      C    1.0459312099    0.7717430207    0.5991426471
C2662      C    1.0407533662    0.7750556773    0.6242128857
H2643      H    0.9353450383    0.8812040805    0.7419108863
H2644      H    0.9360736461    0.9266249330    0.7511455778
H2645      H    1.0150559146    0.9222394216    0.7595230609
H2646      H    1.0143247907    0.8768179159    0.7502885476
C2647      C    0.9747896282    0.8761828118    0.7455239974
C2648      C    0.9527911175    0.8901866635    0.7457650563
C2649      C    0.9532010583    0.9157236736    0.7509572319
C2650      C    0.9756098008    0.9272609838    0.7559088790
C2651      C    0.9976079609    0.9132587347    0.7556687098
C2652      C    0.9971983708    0.8877201221    0.7504756445
H2633      H    0.8746430474    0.7926648346    0.7296329559
H2634      H    0.8299172267    0.7908901843    0.7381107301
H2635      H    0.8465209583    0.7837215109    0.8166138219
H2636      H    0.8912469376    0.7854958199    0.8081334402
C2637      C    0.8857300279    0.7891915336    0.7683553665
C2638      C    0.8684868941    0.7907081959    0.7486703793
C2639      C    0.8433406806    0.7897102947    0.7534371478
C2640      C    0.8354336010    0.7871958852    0.7778898875
C2641      C    0.8526750026    0.7856785926    0.7975748248
C2642      C    0.8778229482    0.7866771241    0.7928081062
H2623      H    0.9537313182    0.8017138743    0.8331542709
H2624      H    0.9476961393    0.8137872457    0.8770292459
H2625      H    0.9754076639    0.7412831154    0.9020678283
H2626      H    0.9814415289    0.7292116119    0.8581914105
C2627      C    0.9679628827    0.7647111671    0.8429408023
C2628      C    0.9584761038    0.7884882371    0.8482382664
C2629      C    0.9550829410    0.7952759539    0.8729062669
C2630      C    0.9611763863    0.7782876252    0.8922808318
C2631      C    0.9706622795    0.7545111001    0.8869848931
C2632      C    0.9740563281    0.7477228384    0.8623153672
H2613      H    0.4880020708    0.8799228383    0.5279475959
H2614      H    0.4831766203    0.8352877548    0.5168221240
H2615      H    0.4476823450    0.8583393891    0.4474895212
H2616      H    0.4525084518    0.9029744021    0.4586175687
C2617      C    0.4705563446    0.8942280396    0.4939750323
C2618      C    0.4791780307    0.8751978092    0.5103374312
C2619      C    0.4764647771    0.8501026310    0.5040821175
C2620      C    0.4651296048    0.8440337227    0.4814630847
C2621      C    0.4565073638    0.8630621702    0.4651008136
C2622      C    0.4592211723    0.8881591314    0.4713559995
H2603      H    0.1459796473    0.7577921783    0.6960170443
H2604      H    0.1014345780    0.7680839382    0.6999468516
H2605      H    0.0892476721    0.6934010601    0.7280827517
H2606      H    0.1337936698    0.6831112897    0.7241514639
C2607      C    0.1426605756    0.7198110646    0.7098402079
C2608      C    0.1335619355    0.7436996701    0.7030359757
C2609      C    0.1085172131    0.7494857048    0.7052454457
C2610      C    0.0925671441    0.7313839770    0.7142598804
C2611      C    0.1016640549    0.7074958861    0.7210635925
C2612      C    0.1267105066    0.7017093367    0.7188546426
H2593      H    0.2816244599    0.8563338160    0.2939328458
H2594      H    0.2746880205    0.9013614849    0.2827700272
H2595      H    0.2730868258    0.8832761798    0.2050990958
H2596      H    0.2800239918    0.8382484897    0.2162644718
C2597      C    0.2812554695    0.8444872072    0.2557937624
C2598      C    0.2797549071    0.8622316464    0.2744899052
C2599      C    0.2758551197    0.8875475804    0.2682135108
C2600      C    0.2734549424    0.8951230449    0.2432397854
C2601      C    0.2749558288    0.8773804518    0.2245435241
C2602      C    0.2788552922    0.8520626717    0.2308200370
H2583      H    0.5535226436    0.7530411272    0.1336851733
H2584      H    0.5588468433    0.7433286844    0.0890966626
H2585      H    0.5104720338    0.6808566779    0.0967252175
H2586      H    0.5051497167    0.6905708500    0.1413142863
C2587      C    0.5290040868    0.7224111805    0.1402760663
C2588      C    0.5440998552    0.7372426395    0.1255945505
C2589      C    0.5470931880    0.7317816893    0.1005255252
C2590      C    0.5349908548    0.7114884486    0.0901339369
C2591      C    0.5198959468    0.6966565265    0.1048138862
C2592      C    0.5169017536    0.7021179398    0.1298844780
H2573      H    0.6045626727    0.7221419313    0.2011786378
H2574      H    0.6499930399    0.7164268949    0.1992490788
H2575      H    0.6595399070    0.7738807007    0.2535009468
H2576      H    0.6141085941    0.7795944442    0.2554284155
C2577      C    0.6065066913    0.7512235905    0.2284242099
C2578      C    0.6165964711    0.7334650830    0.2126307398
C2579      C    0.6421389101    0.7302522038    0.2115460092
C2580      C    0.6575956778    0.7447972303    0.2262549531
C2581      C    0.6475075847    0.7625556961    0.2420476910
C2582      C    0.6219634590    0.7657686170    0.2431331538
H2563      H    0.5277123803    0.5886713043    0.2510309343
H2564      H    0.5174450292    0.6334521891    0.2583940678
H2565      H    0.4950982692    0.6432954703    0.1814497643
H2566      H    0.5053670080    0.5985137728    0.1740887816
C2567      C    0.5171783843    0.5908038817    0.2121014945
C2568      C    0.5205732651    0.6006276323    0.2358023598
C2569      C    0.5148006474    0.6258049373    0.2399418276
C2570      C    0.5056318629    0.6411624676    0.2203809766
C2571      C    0.5022372341    0.6313405113    0.1966805737
C2572      C    0.5080095998    0.6061614120    0.1925406436
H2553      H    0.4973826758    0.8046192523    0.3594735381
H2554      H    0.4931711353    0.8066670104    0.4053141948
H2555      H    0.4382810701    0.7496414012    0.4024795865
H2556      H    0.4424939613    0.7475958043    0.3566382757
C2557      C    0.4702010487    0.7759795002    0.3552015165
C2558      C    0.4844478033    0.7925859641    0.3688873806
C2559      C    0.4820796533    0.7937371368    0.3946604338
C2560      C    0.4654644667    0.7782816526    0.4067517864
C2561      C    0.4512173617    0.7616759232    0.3930675879
C2562      C    0.4535858621    0.7605240160    0.3672928691
H2543      H    0.4752004566    0.8561172993    0.3070417996
H2544      H    0.4637783099    0.9008064239    0.3134154515
H2545      H    0.4958947321    0.9207426552    0.2434883086
H2546      H    0.5073165595    0.8760523397    0.2371170125
C2547      C    0.4919691603    0.8633019578    0.2716821731
C2548      C    0.4797287413    0.8702626330    0.2931319015
C2549      C    0.4733070643    0.8953883741    0.2967151536
C2550      C    0.4791245695    0.9135574700    0.2788489222
C2551      C    0.4913649399    0.9065984776    0.2574000007
C2552      C    0.4977866655    0.8814710536    0.2538159417
H2533      H    0.4015771429    0.7962800224    0.2555153250
H2534      H    0.3576857040    0.8102246050    0.2563573865
H2535      H    0.3365150456    0.7344428459    0.2725298548
H2536      H    0.3804077262    0.7205003163    0.2716867021
C2537      C    0.3937255957    0.7575219415    0.2635492691
C2538      C    0.3873362095    0.7827464679    0.2592400242
C2539      C    0.3626589524    0.7905862469    0.2597134141
C2540      C    0.3443671068    0.7732026225    0.2644964889
C2541      C    0.3507548695    0.7479788362    0.2688051191
C2542      C    0.3754337501    0.7401383170    0.2683323438
H2523      H    0.2778799595    0.6334645185    0.5208502750
H2524      H    0.2680120388    0.5881922091    0.5214419777
H2525      H    0.1922956922    0.6067677113    0.5026382451
H2526      H    0.2021659915    0.6520401316    0.5020476900
C2527      C    0.2406375650    0.6455713839    0.5114114514
C2528      C    0.2591483872    0.6276202890    0.5168635266
C2529      C    0.2536000148    0.6021668309    0.5171962338
C2530      C    0.2295398094    0.5946604201    0.5120765507
C2531      C    0.2110288097    0.6126097596    0.5066251508
C2532      C    0.2165773596    0.6380649731    0.5062917683
H2513      H    0.1434536740    0.7213026930    0.5135565863
H2514      H    0.0987082933    0.7178209496    0.5213147022
H2515      H    0.0912211091    0.7982722621    0.5202544375
H2516      H    0.1359674847    0.8017515588    0.5124968214
C2517      C    0.1424967215    0.7617439529    0.5125429191
C2518      C    0.1320204415    0.7381486121    0.5150219358
C2519      C    0.1068631543    0.7361913750    0.5193838985
C2520      C    0.0921780363    0.7578293636    0.5212672147
C2521      C    0.1026527710    0.7814242429    0.5187890780
C2522      C    0.1278116035    0.7833819415    0.5144262352
H2503      H    0.2424427174    0.7004340860    0.6472726341
H2504      H    0.2508475963    0.7083932108    0.6026039715
H2505      H    0.1805096958    0.7463983256    0.5933152231
H2506      H    0.1721066341    0.7384373904    0.6379846899
C2507      C    0.2067515798    0.7189407487    0.6454103186
C2508      C    0.2288882412    0.7104949882    0.6354622248
C2509      C    0.2336134161    0.7149699134    0.6103480189
C2510      C    0.2162026499    0.7278916991    0.5951779363
C2511      C    0.1940663490    0.7363370863    0.6051242481
C2512      C    0.1893408136    0.7318625344    0.6302402360
H2493      H    0.3042305597    0.7482693038    0.3370699676
H2494      H    0.2990191738    0.7483115330    0.3828634514
H2495      H    0.2546014340    0.8158404409    0.3754722152
H2496      H    0.2598147545    0.8157964364    0.3296783540
C2497      C    0.2823465857    0.7820298751    0.3305225465
C2498      C    0.2933676571    0.7630578850    0.3454760127
C2499      C    0.2904375672    0.7630819468    0.3712225510
C2500      C    0.2764855571    0.7820779888    0.3820196956
C2501      C    0.2654649540    0.8010500267    0.3670680473
C2502      C    0.2683945756    0.8010259171    0.3413196912
H2483      H    0.2473341990    0.9247333810    0.4940304604
H2484      H    0.2379477158    0.8797129961    0.5004230262
H2485      H    0.2698883717    0.8629987611    0.4299735713
H2486      H    0.2792734793    0.9080204115    0.4235828344
C2487      C    0.2638889592    0.9191801842    0.4584088823
C2488      C    0.2522709964    0.9112204930    0.4800111183
C2489      C    0.2469936436    0.8859085505    0.4836049024
C2490      C    0.2533337798    0.8685521519    0.4655970010
C2491      C    0.2649507338    0.8765103052    0.4439950289
C2492      C    0.2702290954    0.9018237856    0.4404009809
H2473      H    0.3892660332    0.8108184956    0.4746147736
H2474      H    0.3452896910    0.7988201267    0.4747561227
H2475      H    0.3670757310    0.7210560309    0.4707559902
H2476      H    0.4110520138    0.7330570319    0.4706141757
C2477      C    0.4028974452    0.7726848257    0.4726063708
C2478      C    0.3844082269    0.7911721889    0.4737710138
C2479      C    0.3596834057    0.7844260321    0.4738503612
C2480      C    0.3534439091    0.7591912149    0.4727653986
C2481      C    0.3719313558    0.7407037621    0.4716001866
C2482      C    0.3966579486    0.7474500085    0.4715214082
H2463      H    0.4359023981    0.4567566003    0.8424093450
H2464      H    0.4416837984    0.4657508189    0.8873110325
H2465      H    0.5039262227    0.5112357053    0.8703581560
H2466      H    0.4981431566    0.5022394657    0.8254564056
C2467      C    0.4666623707    0.4789385470    0.8311367848
C2468      C    0.4507901665    0.4686810930    0.8485274605
C2469      C    0.4540409582    0.4737380165    0.8737725665
C2470      C    0.4731644316    0.4890535850    0.8816309627
C2471      C    0.4890369509    0.4993107108    0.8642421153
C2472      C    0.4857858441    0.4942541155    0.8389951811
H2453      H    0.2496577040    0.2921026038    0.8312676333
H2454      H    0.2435444754    0.2843392541    0.8764053574
H2455      H    0.3220754352    0.2781203294    0.8883826320
H2456      H    0.3281862917    0.2858834030    0.8432437853
C2457      C    0.2893027137    0.2894771151    0.8344451164
C2458      C    0.2655073448    0.2890429459    0.8437694504
C2459      C    0.2620705911    0.2846780122    0.8691473461
C2460      C    0.2824288628    0.2807468602    0.8852050553
C2461      C    0.3062236553    0.2811801766    0.8758822805
C2462      C    0.3096609854    0.2855459631    0.8505028256
H2443      H    0.2365352401    0.6099304754    0.7415386361
H2444      H    0.2291299756    0.6560365951    0.7405536649
H2445      H    0.1812322396    0.6491437475    0.6762719806
H2446      H    0.1886395555    0.6030372370    0.6772586135
C2447      C    0.2130479650    0.6036127663    0.7094603563
C2448      C    0.2244304947    0.6185140250    0.7272544385
C2449      C    0.2202669186    0.6444363403    0.7267003447
C2450      C    0.2047197711    0.6554614951    0.7083521166
C2451      C    0.1933376179    0.6405620708    0.6905579111
C2452      C    0.1975008174    0.6146379211    0.6911121282
H2433      H    0.0843012000    0.5636418961    0.7512383476
H2434      H    0.1284101202    0.5540175756    0.7612602604
H2435      H    0.1320963579    0.5067390203    0.6974639525
H2436      H    0.0879865267    0.5163644862    0.6874442087
C2437      C    0.0833974039    0.5406030315    0.7187168037
C2438      C    0.0947632777    0.5511881746    0.7394687777
C2439      C    0.1195627038    0.5457768078    0.7451032323
C2440      C    0.1330003247    0.5297795740    0.7299862699
C2441      C    0.1216359443    0.5191937971    0.7092352722
C2442      C    0.0968350248    0.5246057978    0.7035998413
H2423      H    0.2101015598    0.4982624939    0.6270507204
H2424      H    0.2009677768    0.5006816952    0.5815617177
H2425      H    0.2567990590    0.5561361713    0.5730273202
H2426      H    0.2659308427    0.5537156405    0.6185173360
C2427      C    0.2385854471    0.5258379305    0.6256165051
C2428      C    0.2203223491    0.5109285516    0.6152255499
C2429      C    0.2151871868    0.5122889958    0.5896501661
C2430      C    0.2283146621    0.5285589339    0.5744615712
C2431      C    0.2465767851    0.5434686059    0.5848509320
C2432      C    0.2517129224    0.5421078686    0.6104279102
H2413      H    0.2640317379    0.3955630670    0.7261242415
H2414      H    0.2739494982    0.3499910539    0.7301223864
H2415      H    0.2989080334    0.3599811661    0.8057646244
H2416      H    0.2889898910    0.4055536311    0.8017638834
C2417      C    0.2758926070    0.4033959846    0.7636953445
C2418      C    0.2716645000    0.3877740915    0.7435551602
C2419      C    0.2772407759    0.3621521103    0.7458033011
C2420      C    0.2870458119    0.3521478871    0.7681922798
C2421      C    0.2912747306    0.3677681193    0.7883321137
C2422      C    0.2856976430    0.3933917613    0.7860843232
H2403      H    0.2536134796    0.5203675711    0.8467805685
H2404      H    0.2667721464    0.5161961979    0.8912597131
H2405      H    0.2623691353    0.4359511314    0.8870591107
H2406      H    0.2492098564    0.4401250904    0.8425796059
C2407      C    0.2505929449    0.4805060195    0.8419102016
C2408      C    0.2555308856    0.5018915420    0.8555971053
C2409      C    0.2629289879    0.4995459603    0.8806047104
C2410      C    0.2653906368    0.4758142630    0.8919293192
C2411      C    0.2604526504    0.4544289469    0.8782442682
C2412      C    0.2530545938    0.4567743222    0.8532348103
H2393      H    0.3484809462    0.5065519765    0.7742905784
H2394      H    0.3923449131    0.5022516881    0.7881625504
H2395      H    0.4059282924    0.4513808574    0.7286507151
H2396      H    0.3620631305    0.4556823330    0.7147807426
C2397      C    0.3525408112    0.4813854599    0.7436714222
C2398      C    0.3610555254    0.4944774050    0.7643014528
C2399      C    0.3857172727    0.4920593661    0.7721005534
C2400      C    0.4018683657    0.4765491247    0.7592705268
C2401      C    0.3933551148    0.4634567691    0.7386416199
C2402      C    0.3686919042    0.4658752184    0.7308413955
H2383      H    0.5213207215    0.2495186552    0.8653998232
H2384      H    0.5155136818    0.2543333384    0.9107760021
H2385      H    0.4369228013    0.2518371619    0.8992272464
H2386      H    0.4427323465    0.2470230754    0.8538506904
C2387      C    0.4823881382    0.2479703553    0.8567997874
C2388      C    0.5028487745    0.2500254269    0.8728047666
C2389      C    0.4995835657    0.2527324941    0.8983166419
C2390      C    0.4758570138    0.2533845860    0.9078276384
C2391      C    0.4553964623    0.2513302987    0.8918243427
C2392      C    0.4586615863    0.2486224471    0.8663107838
H2373      H    0.4929465058    0.4037245028    0.7941770504
H2374      H    0.5009271459    0.3591496882    0.7839037225
H2375      H    0.4543678471    0.3680967134    0.7183494546
H2376      H    0.4463880775    0.4126717408    0.7286252816
C2377      C    0.4691708744    0.4109739677    0.7620404909
C2378      C    0.4845037805    0.3959258564    0.7775802895
C2379      C    0.4889904869    0.3708644806    0.7718041027
C2380      C    0.4781451486    0.3608473126    0.7504868532
C2381      C    0.4628122734    0.3758935466    0.7349472526
C2382      C    0.4583255362    0.4009567998    0.7407232415
H2363      H    0.4028197971    0.3015239433    0.7358014784
H2364      H    0.3578578309    0.3108136232    0.7370808242
H2365      H    0.3535839715    0.2668702407    0.8047727172
H2366      H    0.3985466213    0.2575813085    0.8034909346
C2367      C    0.4034830944    0.2789747227    0.7695669363
C2368      C    0.3920427325    0.2939403211    0.7508973871
C2369      C    0.3667636469    0.2991630173    0.7516168784
C2370      C    0.3529209214    0.2894211136    0.7710063795
C2371      C    0.3643595006    0.2744555622    0.7896753805
C2372      C    0.3896403689    0.2692328190    0.7889564374
H2353      H    0.6566510142    0.2156490800    0.6741014881
H2354      H    0.6114676474    0.2135882510    0.6798954625
H2355      H    0.6204829705    0.2430284010    0.7534252695
H2356      H    0.6656667818    0.2450877938    0.7476291463
C2357      C    0.6639723708    0.2304974285    0.7105042881
C2358      C    0.6487338056    0.2216421699    0.6914626101
C2359      C    0.6233303240    0.2204835178    0.6947204905
C2360      C    0.6131613231    0.2281803220    0.7170206298
C2361      C    0.6283982137    0.2370348265    0.7360624436
C2362      C    0.6538033699    0.2381942327    0.7328044273
H2343      H    0.4957975852    0.2737315108    0.6239117926
H2344      H    0.4981132899    0.2641885146    0.5789680242
H2345      H    0.5589149648    0.2129997685    0.5948851723
H2346      H    0.5565977092    0.2225449367    0.6398290276
C2347      C    0.5260530243    0.2487319209    0.6346691311
C2348      C    0.5096113843    0.2604385609    0.6175577923
C2349      C    0.5109136495    0.2550730690    0.5922890214
C2350      C    0.5286577056    0.2379997015    0.5841276221
C2351      C    0.5450995556    0.2262933581    0.6012371266
C2352      C    0.5437970804    0.2316585534    0.6265077318
H2333      H    0.5362077412    0.0781560638    0.7708828093
H2334      H    0.5336648398    0.1237751965    0.7791131537
H2335      H    0.5252656023    0.1394347416    0.7005129889
H2336      H    0.5278093802    0.0938144898    0.6922849257
C2337      C    0.5321662155    0.0831445592    0.7310713937
C2338      C    0.5338120343    0.0915690120    0.7554815249
C2339      C    0.5323824083    0.1172176082    0.7601085769
C2340      C    0.5293063885    0.1344458812    0.7403260666
C2341      C    0.5276610901    0.1260231162    0.7159165294
C2342      C    0.5290901956    0.1003728322    0.7112888834
H2323      H    0.8786470160    0.3054693392    0.4072344455
H2324      H    0.8362083801    0.2932420683    0.4179510967
H2325      H    0.8536311159    0.3032244331    0.4955737067
H2326      H    0.8960700059    0.3154510047    0.4848545351
C2327      C    0.8900009409    0.3112222366    0.4453771347
C2328      C    0.8731705525    0.3049784547    0.4265691086
C2329      C    0.8493102988    0.2981038274    0.4325946587
C2330      C    0.8422765550    0.2974722242    0.4574293664
C2331      C    0.8591054491    0.3037149334    0.4762375237
C2332      C    0.8829671971    0.3105906334    0.4702118425
H2313      H    0.8638661742    0.4431339641    0.2891047206
H2314      H    0.9095570591    0.4399242289    0.2918966356
H2315      H    0.9141677517    0.5158088427    0.2640479384
H2316      H    0.8684760678    0.5190160689    0.2612562978
C2317      C    0.8633259586    0.4812751428    0.2750073044
C2318      C    0.8748766415    0.4590401994    0.2836214603
C2319      C    0.9005655324    0.4572358394    0.2851909554
C2320      C    0.9147078616    0.4776664336    0.2781467861
C2321      C    0.9031588927    0.4999007431    0.2695322974
C2322      C    0.8774682878    0.5017057370    0.2679631351
H2303      H    1.0043042047    0.1137684656    0.1650809705
H2304      H    0.9955608612    0.1587293131    0.1730993241
H2305      H    1.0065460468    0.1446187640    0.2516983798
H2306      H    1.0152886103    0.0996575847    0.2436775144
C2307      C    1.0103415285    0.1039134655    0.2038799095
C2308      C    1.0047954049    0.1205218617    0.1840387098
C2309      C    0.9998795566    0.1458002071    0.1885471946
C2310      C    1.0005093898    0.1544742357    0.2128977704
C2311      C    1.0060545689    0.1378674775    0.2327389950
C2312      C    1.0109713616    0.1125874941    0.2282304853
H2293      H    1.0947667358    0.2181406949    0.2041389730
H2294      H    1.1384683643    0.2042341697    0.2006906513
H2295      H    1.1618657361    0.2718862972    0.2356653716
H2296      H    1.1181627655    0.2857911924    0.2391121288
C2297      C    1.1037434498    0.2528315960    0.2218409145
C2298      C    1.1094535185    0.2299030504    0.2110396488
C2299      C    1.1340240605    0.2220846686    0.2091009298
C2300      C    1.1528885160    0.2371935968    0.2179635496
C2301      C    1.1471800204    0.2601216092    0.2287640099
C2302      C    1.1226079053    0.2679405242    0.2307035343
H2283      H    1.0462158945    0.2718324974    0.1336812939
H2284      H    1.0548107371    0.2681628927    0.0886906641
H2285      H    1.0249571786    0.1940458368    0.0893556745
H2286      H    1.0163636671    0.1977175695    0.1343470750
C2287      C    1.0307539460    0.2350037886    0.1368155701
C2288      C    1.0415625960    0.2548078648    0.1239785811
C2289      C    1.0463948729    0.2527443689    0.0986834432
C2290      C    1.0404189025    0.2308764105    0.0862211672
C2291      C    1.0296112317    0.2110722727    0.0990565936
C2292      C    1.0247779756    0.2131358302    0.1243532941
H2273      H    0.9538907196    0.4139027883    0.2546770990
H2274      H    0.9612533233    0.3690155355    0.2452618277
H2275      H    1.0311105010    0.3705271880    0.2845953646
H2276      H    1.0237458777    0.4154152061    0.2940090522
C2277      C    0.9883595454    0.4174539193    0.2749299652
C2278      C    0.9707913372    0.4044079749    0.2612256157
C2279      C    0.9749311438    0.3791709662    0.2559321097
C2280      C    0.9966398504    0.3669757737    0.2643424831
C2281      C    1.0142083071    0.3800201783    0.2780458134
C2282      C    1.0100682521    0.4052587268    0.2833403387
H2263      H    0.8830751650    0.2665633269    0.2161599048
H2264      H    0.8378884121    0.2717321582    0.2210884800
H2265      H    0.8480060646    0.2678065532    0.3007074176
H2266      H    0.8931931057    0.2626371802    0.2957762859
C2267      C    0.8909479645    0.2642790915    0.2556612308
C2268      C    0.8753986422    0.2668363540    0.2346646126
C2269      C    0.8499932385    0.2697423122    0.2374359189
C2270      C    0.8401331438    0.2700917943    0.2612044914
C2271      C    0.8556806642    0.2675341513    0.2822009555
C2272      C    0.8810878698    0.2646285736    0.2794298033
H2253      H    1.0018870767    0.2922458898    0.3500055231
H2254      H    0.9907656532    0.3063812159    0.3921256725
H2255      H    0.9142931857    0.3101408470    0.3692573801
H2256      H    0.9254172088    0.2960057621    0.3271371524
C2257      C    0.9643445739    0.2932449555    0.3359487360
C2258      C    0.9827153921    0.2961620904    0.3542204235
C2259      C    0.9764622907    0.3041095393    0.3779015933
C2260      C    0.9518371445    0.3091408190    0.3833149109
C2261      C    0.9334662848    0.3062247687    0.3650447301
C2262      C    0.9397194278    0.2982762352    0.3413620536
H2243      H    0.9179396475    0.3829317081    0.4655871493
H2244      H    0.9291350507    0.4259839710    0.4777791902
H2245      H    0.9985922400    0.4173402044    0.4416117774
H2246      H    0.9873947567    0.3742873654    0.4294211844
C2247      C    0.9519698022    0.3759289469    0.4467443662
C2248      C    0.9355917124    0.3904639607    0.4603393968
C2249      C    0.9418864363    0.4146692414    0.4671941040
C2250      C    0.9645602957    0.4243434867    0.4604545067
C2251      C    0.9809387631    0.4098099135    0.4468605900
C2252      C    0.9746436616    0.3856031923    0.4400047689
H2233      H    1.0302271783    0.5115810336    0.3742358725
H2234      H    1.0233763279    0.4994621009    0.3302695035
H2235      H    0.9536844193    0.4681354341    0.3493031776
H2236      H    0.9605377998    0.4802549932    0.3932697126
C2237      C    0.9958087536    0.4966732679    0.3864904260
C2238      C    1.0134740458    0.5020726669    0.3687776616
C2239      C    1.0096220601    0.4952587999    0.3440584628
C2240      C    0.9881038430    0.4830446587    0.3370480500
C2241      C    0.9704388467    0.4776444059    0.3547591953
C2242      C    0.9742905365    0.4844591267    0.3794800133
H2223      H    0.8830150031    0.5442807651    0.4828351999
H2224      H    0.8379432120    0.5382194061    0.4777676970
H2225      H    0.8488166742    0.4588415754    0.4903627803
H2226      H    0.8938888475    0.4649054174    0.4954293881
C2227      C    0.8912584542    0.5049705918    0.4894485360
C2228      C    0.8755289046    0.5255809815    0.4844833784
C2229      C    0.8501881610    0.5221727739    0.4816342089
C2230      C    0.8405728989    0.4981534735    0.4837500965
C2231      C    0.8563007676    0.4775431114    0.4887144302
C2232      C    0.8816431921    0.4809512914    0.4915644236
H2213      H    0.9749560803    0.5449426134    0.6551587791
H2214      H    0.9652962136    0.5429449497    0.6098535940
H2215      H    1.0423624882    0.5491059250    0.5943238864
H2216      H    1.0520200398    0.5511040168    0.6396301868
C2217      C    1.0140896709    0.5481470081    0.6502156455
C2218      C    0.9897088759    0.5458529723    0.6418429619
C2219      C    0.9842780762    0.5447299545    0.6163708786
C2220      C    1.0032274276    0.5459004762    0.5992673749
C2221      C    1.0276074780    0.5481950050    0.6076383868
C2222      C    1.0330390223    0.5493175298    0.6331121418
H2203      H    1.0209661460    0.6428979368    0.4784410467
H2204      H    1.0241604253    0.6890519015    0.4822536485
H2205      H    1.0387422946    0.6797404161    0.5609453167
H2206      H    1.0355469443    0.6335861089    0.5571303111
C2207      C    1.0280583227    0.6353679840    0.5175481771
C2208      C    1.0248575917    0.6509626371    0.4964983842
C2209      C    1.0266534681    0.6769118384    0.4986422709
C2210      C    1.0316507207    0.6872704976    0.5218364353
C2211      C    1.0348509373    0.6716776644    0.5428861442
C2212      C    1.0330555752    0.6457266432    0.5407423415
H2193      H    1.1177508327    0.5630184250    0.4658824765
H2194      H    1.1628032637    0.5602098634    0.4749412657
H2195      H    1.1502216667    0.5092960100    0.5362075798
H2196      H    1.1051689242    0.5121066534    0.5271471152
C2197      C    1.1086545341    0.5377368663    0.4959502982
C2198      C    1.1248588178    0.5512597295    0.4812739907
C2199      C    1.1501886731    0.5496805554    0.4863674326
C2200      C    1.1593182971    0.5345778806    0.5061379478
C2201      C    1.1431157180    0.5210555836    0.5208147056
C2202      C    1.1177841581    0.5226341915    0.5157208134
H2183      H    0.6075025025    0.5083047717   -0.0197611176
H2184      H    0.6528765307    0.5132683970   -0.0170311376
H2185      H    0.6477177870    0.5305203196    0.0605594103
H2186      H    0.6023431906    0.5255566614    0.0578268371
C2187      C    0.6020975039    0.5166209543    0.0188630570
C2188      C    0.6163055206    0.5131663496   -0.0021814317
C2189      C    0.6418162127    0.5159572301   -0.0006462778
C2190      C    0.6531230000    0.5222028820    0.0219338838
C2191      C    0.6389166480    0.5256581810    0.0429780114
C2192      C    0.6134042913    0.5228666062    0.0414432186
H2173      H    0.7449818468    0.4763908229    0.1270779502
H2174      H    0.7388948686    0.4852770766    0.0817926574
H2175      H    0.7001959590    0.5539900034    0.0979341124
H2176      H    0.7062837264    0.5451011949    0.1432195696
C2177      C    0.7260124062    0.5101930308    0.1379686530
C2178      C    0.7351802637    0.4933752571    0.1206981789
C2179      C    0.7317577293    0.4983716029    0.0952374076
C2180      C    0.7191669750    0.5201868568    0.0870430683
C2181      C    0.7099985432    0.5370043896    0.1043117742
C2182      C    0.7134216519    0.5320082846    0.1297743137
H2163      H    0.5997510569    0.7119527046   -0.0137791220
H2164      H    0.6443580118    0.7213791522   -0.0145039347
H2165      H    0.6476245341    0.7190322542    0.0655665809
H2166      H    0.6030166988    0.7096063224    0.0662889225
C2167      C    0.5986063763    0.7101918418    0.0263000496
C2168      C    0.6102302554    0.7135016378    0.0035869178
C2169      C    0.6353096955    0.7188015847    0.0031797142
C2170      C    0.6487693550    0.7207922529    0.0254857726
C2171      C    0.6371470147    0.7174834054    0.0481985523
C2172      C    0.6120660357    0.7121825099    0.0486061080
H2153      H    0.7430821773    0.5811742961   -0.0135559193
H2154      H    0.7491844695    0.6261505663   -0.0240177908
H2155      H    0.7011496505    0.6471046845    0.0349902957
H2156      H    0.6950483056    0.6021271008    0.0454501106
C2157      C    0.7186857835    0.5888500600    0.0165990157
C2158      C    0.7339053513    0.5956053816   -0.0029305733
C2159      C    0.7373359856    0.6208925529   -0.0088124130
C2160      C    0.7255477387    0.6394285099    0.0048347518
C2161      C    0.7103281406    0.6326747905    0.0243633247
C2162      C    0.7068975365    0.6073860169    0.0302461805
H2143      H    0.7450156464    0.7115925840    0.1142777884
H2144      H    0.7387865186    0.7076085249    0.1598149223
H2145      H    0.7048173032    0.7811647819    0.1593336558
H2146      H    0.7110480982    0.7851468508    0.1137959749
C2147      C    0.7284191280    0.7486175419    0.1112011830
C2148      C    0.7362167371    0.7268191412    0.1241400214
C2149      C    0.7327144881    0.7245795029    0.1497424659
C2150      C    0.7214136920    0.7441379560    0.1624101152
C2151      C    0.7136165122    0.7659361410    0.1494730979
C2152      C    0.7171183318    0.7681759951    0.1238688323
H2133      H    0.8982704046    0.7439748661   -0.0574132907
H2134      H    0.8542363333    0.7392985126   -0.0469858722
H2135      H    0.8529668126    0.8137031990   -0.0175201760
H2136      H    0.8970017243    0.8183770866   -0.0279481316
C2137      C    0.9003778573    0.7814674567   -0.0433306444
C2138      C    0.8883536403    0.7592361978   -0.0486824946
C2139      C    0.8635963069    0.7566072481   -0.0428196567
C2140      C    0.8508591315    0.7762094460   -0.0316042542
C2141      C    0.8628818535    0.7984399975   -0.0262515994
C2142      C    0.8876406820    0.8010696545   -0.0321152419
H2123      H    0.7585578316    0.7386349010   -0.1663818580
H2124      H    0.7566284441    0.7232985100   -0.1225471980
H2125      H    0.7805866003    0.7950358143   -0.0972198866
H2126      H    0.7825158260    0.8103700107   -0.1410559930
C2127      C    0.7706563182    0.7754576920   -0.1564484590
C2128      C    0.7633783797    0.7509789949   -0.1512435006
C2129      C    0.7622938108    0.7423566283   -0.1265981644
C2130      C    0.7684867546    0.7582118621   -0.1071537639
C2131      C    0.7757650789    0.7826894942   -0.1123571950
C2132      C    0.7768492620    0.7913129258   -0.1370040586
H2113      H    0.7866728452    0.8977996277   -0.0514660353
H2114      H    0.7769778762    0.8532018180   -0.0428353553
H2115      H    0.7768886152    0.8674821914    0.0356689392
H2116      H    0.7865842976    0.9120800724    0.0270357316
C2117      C    0.7872315956    0.9077171010   -0.0127526024
C2118      C    0.7845303924    0.8911632036   -0.0323949896
C2119      C    0.7790796764    0.8660889241   -0.0275422375
C2120      C    0.7763289702    0.8575646364   -0.0030461467
C2121      C    0.7790303807    0.8741166574    0.0165962790
C2122      C    0.7844808894    0.8991928132    0.0117434884
loop_
_geom_bond_atom_site_label_1
_geom_bond_atom_site_label_2
_geom_bond_distance
_geom_bond_site_symmetry_2
_ccdc_geom_bond_type
