data_6c_Zr_1_Ch_dummy
_audit_creation_date              2024-11-21
_audit_creation_method            'MOFbuilder'
_symmetry_space_group_name_H-M    'P1'
_symmetry_Int_Tables_number       1
_symmetry_cell_setting            triclinic
loop_
_symmetry_equiv_pos_as_xyz
  x,y,z
_cell_length_a                    50
_cell_length_b                    50
_cell_length_c                    50
_cell_angle_alpha                 90
_cell_angle_beta                  90
_cell_angle_gamma                 90
loop_
_atom_site_label
_atom_site_type_symbol
_atom_site_fract_x
_atom_site_fract_y
_atom_site_fract_z
D67        D    0.9550053971    0.9860519227    0.9552138043   0.00000  Uiso   1.00       -0.000000
D68        D    0.9752860026    0.9609794714    0.9592435614   0.00000  Uiso   1.00       -0.000000
D69        D    0.9767767474    0.9820189836    0.9458516930   0.00000  Uiso   1.00       -0.000000
D70        D    0.9549605899    0.9697776420    0.9708025213   0.00000  Uiso   1.00       -0.000000
D71        D    0.9912213608    0.9793578480    0.9665861597   0.00000  Uiso   1.00       -0.000000
D72        D    0.9776086954    0.9717201461    0.9821518843   0.00000  Uiso   1.00       -0.000000
D73        D    0.9794715885    0.9979721461    0.9654434450   0.00000  Uiso   1.00       -0.000000
D74        D    0.9658595636    0.9903347276    0.9810099415   0.00000  Uiso   1.00       -0.000000
Zr1       Zr    0.9712920000    0.9797280000    0.9649480000   0.00000  Uiso   1.00       -0.000000
D75        D    0.0247140995    0.0390200496    0.0407540839   0.00000  Uiso   1.00       -0.000000
D76        D    0.0440676444    0.0136580606    0.0460178282   0.00000  Uiso   1.00       -0.000000
D77        D    0.0232237216    0.0179812123    0.0541444652   0.00000  Uiso   1.00       -0.000000
D78        D    0.0450398381    0.0302226188    0.0291951162   0.00000  Uiso   1.00       -0.000000
D79        D    0.0205291004    0.0020274925    0.0345544948   0.00000  Uiso   1.00       -0.000000
D80        D    0.0341408504    0.0096644639    0.0189867325   0.00000  Uiso   1.00       -0.000000
D81        D    0.0223907889    0.0282805077    0.0178446094   0.00000  Uiso   1.00       -0.000000
D82        D    0.0087784844    0.0206421548    0.0334117258   0.00000  Uiso   1.00       -0.000000
Zr13      Zr    0.0287080000    0.0202720000    0.0350480000   0.00000  Uiso   1.00       -0.000000
D83        D    0.0262205517    0.0132288487    0.9458519425   0.00000  Uiso   1.00       -0.000000
D84        D    0.0224097618    0.9990453010    0.9665861566   0.00000  Uiso   1.00       -0.000000
D85        D    0.0106595031    0.0176591712    0.9654434414   0.00000  Uiso   1.00       -0.000000
D86        D    0.0305215644    0.0350819213    0.9559993781   0.00000  Uiso   1.00       -0.000000
D87        D    0.0471871003    0.0084680281    0.9578571136   0.00000  Uiso   1.00       -0.000000
D88        D    0.0466562178    0.0276591918    0.9708010830   0.00000  Uiso   1.00       -0.000000
D89        D    0.0351597081    0.0080492094    0.9821520900   0.00000  Uiso   1.00       -0.000000
D90        D    0.0234105217    0.0266637529    0.9810097733   0.00000  Uiso   1.00       -0.000000
Zr14      Zr    0.0306480000    0.0171960000    0.9649480000   0.00000  Uiso   1.00       -0.000000
D91        D    0.9533437822    0.9723408082    0.0291989170   0.00000  Uiso   1.00       -0.000000
D92        D    0.9765894783    0.9733362471    0.0189902267   0.00000  Uiso   1.00       -0.000000
D93        D    0.9648402919    0.9919507906    0.0178479100   0.00000  Uiso   1.00       -0.000000
D94        D    0.9532395154    0.9921787778    0.0422977838   0.00000  Uiso   1.00       -0.000000
D95        D    0.9705103135    0.9657613217    0.0454541838   0.00000  Uiso   1.00       -0.000000
D96        D    0.9737794483    0.9867711513    0.0541480575   0.00000  Uiso   1.00       -0.000000
D97        D    0.9893404529    0.9823389315    0.0345565597   0.00000  Uiso   1.00       -0.000000
D98        D    0.9775902382    0.0009546990    0.0334138434   0.00000  Uiso   1.00       -0.000000
Zr15      Zr    0.9693520000    0.9828040000    0.0350520000   0.00000  Uiso   1.00       -0.000000
D100       D    0.0202097844    0.9679841289    0.9863571225   0.00000  Uiso   1.00       -0.000000
D101       D    0.0065989847    0.9603464551    0.0019228728   0.00000  Uiso   1.00       -0.000000
D102       D    0.0222512947    0.9425411094    0.0144339286   0.00000  Uiso   1.00       -0.000000
D103       D    0.0406825496    0.9543713090    0.0161342641   0.00000  Uiso   1.00       -0.000000
D104       D    0.0428321758    0.9537986527    0.9919142490   0.00000  Uiso   1.00       -0.000000
D105       D    0.0193479106    0.9693490788    0.0174889763   0.00000  Uiso   1.00       -0.000000
D106       D    0.0329591776    0.9769874199    0.0019228415   0.00000  Uiso   1.00       -0.000000
D99        D    0.0212394167    0.9429505768    0.9905834633   0.00000  Uiso   1.00       -0.000000
Zr16      Zr    0.0264600000    0.9580840000    0.0025720000   0.00000  Uiso   1.00       -0.000000
D107       D    0.9806517092    0.0306496254    0.9825118210   0.00000  Uiso   1.00       -0.000000
D108       D    0.9670408224    0.0230125801    0.9980771585   0.00000  Uiso   1.00       -0.000000
D109       D    0.9934010153    0.0396535449    0.9980771272   0.00000  Uiso   1.00       -0.000000
D110       D    0.9797902156    0.0320158711    0.0136428775   0.00000  Uiso   1.00       -0.000000
D111       D    0.9578896884    0.0435125090    0.9850781455   0.00000  Uiso   1.00       -0.000000
D112       D    0.9785327047    0.0571833545    0.9855124310   0.00000  Uiso   1.00       -0.000000
D113       D    0.9568808926    0.0470181456    0.0072485015   0.00000  Uiso   1.00       -0.000000
D114       D    0.9787605833    0.0570494232    0.0094165367   0.00000  Uiso   1.00       -0.000000
Zr31      Zr    0.9735400000    0.0419160000    0.9974280000   0.00000  Uiso   1.00       -0.000000
H58        H    0.9331240000    0.9793440000    0.9305680000   0.00000  Uiso   1.00       -0.000000
H66        H    0.9420920000    0.0091760000    0.9340480000   0.00000  Uiso   1.00       -0.000000
O2         O    0.9367920000    0.9931240000    0.9443280000   0.00000  Uiso   1.00       -0.000000
H49        H    0.0662480000    0.9305400000    0.9851280000   0.00000  Uiso   1.00       -0.000000
H63        H    0.0553120000    0.9472280000    0.9611600000   0.00000  Uiso   1.00       -0.000000
O18        O    0.0611960000    0.9489920000    0.9799600000   0.00000  Uiso   1.00       -0.000000
H50        H    0.0455240000    0.0546480000    0.9332120000   0.00000  Uiso   1.00       -0.000000
H65        H    0.0143560000    0.0558080000    0.9344040000   0.00000  Uiso   1.00       -0.000000
O33        O    0.0303800000    0.0551080000    0.9459800000   0.00000  Uiso   1.00       -0.000000
H55        H    0.9353320000    0.0720640000    0.0147560000   0.00000  Uiso   1.00       -0.000000
H64        H    0.9421000000    0.0521000000    0.0376520000   0.00000  Uiso   1.00       -0.000000
O35        O    0.9381200000    0.0527640000    0.0183080000   0.00000  Uiso   1.00       -0.000000
H57        H    0.0557880000    0.9886120000    0.0654640000   0.00000  Uiso   1.00       -0.000000
H61        H    0.0759960000    0.0019120000    0.0458080000   0.00000  Uiso   1.00       -0.000000
O38        O    0.0613040000    0.0062360000    0.0583280000   0.00000  Uiso   1.00       -0.000000
H53        H    0.9559520000    0.9466800000    0.0689880000   0.00000  Uiso   1.00       -0.000000
H60        H    0.9683680000    0.9318040000    0.0445240000   0.00000  Uiso   1.00       -0.000000
O39        O    0.9718080000    0.9466680000    0.0571080000   0.00000  Uiso   1.00       -0.000000
H45        H    0.9774240000    0.9445440000    0.0025160000   0.00000  Uiso   1.00       -0.000000
O10        O    0.9846040000    0.9628520000    0.0012040000   0.00000  Uiso   1.00       -0.000000
H48        H    0.9825240000    0.0274440000    0.9496200000   0.00000  Uiso   1.00       -0.000000
O11        O    0.9885280000    0.0181720000    0.9659920000   0.00000  Uiso   1.00       -0.000000
H54        H    0.9282000000    0.9906360000    0.0644280000   0.00000  Uiso   1.00       -0.000000
O17        O    0.9353560000    0.0025840000    0.0503400000   0.00000  Uiso   1.00       -0.000000
H46        H    0.0598200000    0.9961680000    0.0018240000   0.00000  Uiso   1.00       -0.000000
O20        O    0.0401560000    0.9979200000    0.0012040000   0.00000  Uiso   1.00       -0.000000
H47        H    0.9794400000    0.0312560000    0.0468160000   0.00000  Uiso   1.00       -0.000000
O22        O    0.9867120000    0.0210520000    0.0316000000   0.00000  Uiso   1.00       -0.000000
H62        H    0.0599520000    0.9853120000    0.9365760000   0.00000  Uiso   1.00       -0.000000
O26        O    0.0656440000    0.9987280000    0.9499440000   0.00000  Uiso   1.00       -0.000000
H59        H    0.9362640000    0.0645080000    0.9686160000   0.00000  Uiso   1.00       -0.000000
O30        O    0.9403280000    0.0453040000    0.9712200000   0.00000  Uiso   1.00       -0.000000
H51        H    0.9734720000    0.0898080000    0.9782480000   0.00000  Uiso   1.00       -0.000000
O34        O    0.9841040000    0.0742200000    0.9722160000   0.00000  Uiso   1.00       -0.000000
H52        H    0.0286080000    0.9100480000    0.0212440000   0.00000  Uiso   1.00       -0.000000
O42        O    0.0175600000    0.9252160000    0.0276560000   0.00000  Uiso   1.00       -0.000000
H56        H    0.0730880000    0.9595520000    0.0256040000   0.00000  Uiso   1.00       -0.000000
O43        O    0.0566160000    0.9502120000    0.0313280000   0.00000  Uiso   1.00       -0.000000
O9         O    0.0132880000    0.9789480000    0.9684000000   0.00000  Uiso   1.00       -0.000000
O12        O    0.9598440000    0.0020800000    0.9987960000   0.00000  Uiso   1.00       -0.000000
O19        O    0.0114720000    0.9818240000    0.0340080000   0.00000  Uiso   1.00       -0.000000
O21        O    0.0153960000    0.0371480000    0.9987960000   0.00000  Uiso   1.00       -0.000000
O3         O    0.9802120000    0.9378560000    0.9522080000   0.00000  Uiso   1.00       -0.000000
O8         O    0.0148000000    0.9242840000    0.9757960000   0.00000  Uiso   1.00       -0.000000
X23        C    0.9971840000    0.9222080000    0.9593760000   0.00000  Uiso   1.00       -0.000000
O4         O    0.9835400000    0.9848440000    0.9223040000   0.00000  Uiso   1.00       -0.000000
O6         O    0.0207600000    0.0083360000    0.9223000000   0.00000  Uiso   1.00       -0.000000
X25        C    0.0024280000    0.9961520000    0.9123120000   0.00000  Uiso   1.00       -0.000000
O5         O    0.9336000000    0.9594360000    0.0219800000   0.00000  Uiso   1.00       -0.000000
O7         O    0.9348160000    0.9575040000    0.9780240000   0.00000  Uiso   1.00       -0.000000
X24        C    0.9257520000    0.9531320000    0.0000040000   0.00000  Uiso   1.00       -0.000000
O27        O    0.0664000000    0.0405640000    0.9780200000   0.00000  Uiso   1.00       -0.000000
O28        O    0.0651840000    0.0424960000    0.0219760000   0.00000  Uiso   1.00       -0.000000
X29        C    0.0742480000    0.0468680000    0.0000000000   0.00000  Uiso   1.00       -0.000000
O32        O    0.0197880000    0.0621440000    0.0477920000   0.00000  Uiso   1.00       -0.000000
O36        O    0.9852000000    0.0757160000    0.0242040000   0.00000  Uiso   1.00       -0.000000
X37        C    0.0028160000    0.0777920000    0.0406240000   0.00000  Uiso   1.00       -0.000000
O40        O    0.0164600000    0.0151560000    0.0776960000   0.00000  Uiso   1.00       -0.000000
O41        O    0.9792400000    0.9916640000    0.0777000000   0.00000  Uiso   1.00       -0.000000
X44        C    0.9975720000    0.0038480000    0.0876880000   0.00000  Uiso   1.00       -0.000000
loop_
_geom_bond_atom_site_label_1
_geom_bond_atom_site_label_2
_geom_bond_distance
_geom_bond_site_symmetry_2
_ccdc_geom_bond_type
D68         Zr1 1.000       .   S
D73         Zr1 1.000       .   S
D71         Zr1 1.000       .   S
D74         Zr1 1.000       .   S
D72         Zr1 1.000       .   S
D69         Zr1 1.000       .   S
D67         Zr1 1.000       .   S
Zr1         D70 1.000       .   S
D81        Zr13 1.000       .   S
D82        Zr13 1.000       .   S
D79        Zr13 1.000       .   S
D75        Zr13 1.000       .   S
D80        Zr13 1.000       .   S
Zr13        D76 1.000       .   S
Zr13        D77 1.000       .   S
Zr13        D78 1.000       .   S
D88        Zr14 1.000       .   S
D84        Zr14 1.000       .   S
D85        Zr14 1.000       .   S
D90        Zr14 1.000       .   S
Zr14        D83 1.000       .   S
Zr14        D86 1.000       .   S
Zr14        D87 1.000       .   S
Zr14        D89 1.000       .   S
D95        Zr15 1.000       .   S
D98        Zr15 1.000       .   S
Zr15        D91 1.000       .   S
Zr15        D92 1.000       .   S
Zr15        D93 1.000       .   S
Zr15        D94 1.000       .   S
Zr15        D96 1.000       .   S
Zr15        D97 1.000       .   S
D102       Zr16 1.000       .   S
D106       Zr16 1.000       .   S
D105       Zr16 1.000       .   S
D101       Zr16 1.000       .   S
D99        Zr16 1.000       .   S
D103       Zr16 1.000       .   S
D100       Zr16 1.000       .   S
Zr16       D104 1.000       .   S
D109       Zr31 1.000       .   S
D107       Zr31 1.000       .   S
D112       Zr31 1.000       .   S
D110       Zr31 1.000       .   S
D108       Zr31 1.000       .   S
Zr31       D111 1.000       .   S
Zr31       D113 1.000       .   S
Zr31       D114 1.000       .   S
H58          O2 1.000       .   S
O2          H66 1.000       .   S
H49         O18 1.000       .   S
O18         H63 1.000       .   S
H65         O33 1.000       .   S
O33         H50 1.000       .   S
H55         O35 1.000       .   S
O35         H64 1.000       .   S
H57         O38 1.000       .   S
H61         O38 1.000       .   S
H60         O39 1.000       .   S
H53         O39 1.000       .   S
O10         H45 1.000       .   S
H48         O11 1.000       .   S
H54         O17 1.000       .   S
H46         O20 1.000       .   S
H47         O22 1.000       .   S
O26         H62 1.000       .   S
O30         H59 1.000       .   S
H51         O34 1.000       .   S
H52         O42 1.000       .   S
H56         O43 1.000       .   S
O8          X23 1.000       .   A
O3          X23 1.000       .   A
X25          O4 1.000       .   A
X25          O6 1.000       .   A
X24          O5 1.000       .   A
X24          O7 1.000       .   A
O28         X29 1.000       .   A
O27         X29 1.000       .   A
X37         O32 1.000       .   A
X37         O36 1.000       .   A
O41         X44 1.000       .   A
X44         O40 1.000       .   A
