data_tetracenter
_audit_creation_date              2024-11-08
_audit_creation_method            'MOFbuilder'
_symmetry_space_group_name_H-M    'P1'
_symmetry_Int_Tables_number       1
_symmetry_cell_setting            triclinic
loop_
_symmetry_equiv_pos_as_xyz
  x,y,z
_cell_length_a                    50
_cell_length_b                    50
_cell_length_c                    50
_cell_angle_alpha                 90
_cell_angle_beta                  90
_cell_angle_gamma                 90
loop_
_atom_site_label
_atom_site_type_symbol
_atom_site_fract_x
_atom_site_fract_y
_atom_site_fract_z
N1         N    0.9972928748    0.9999610089    0.9601487232   0.00000  Uiso   1.00       -0.000000
C2         C    0.9953108748    0.0219650089    0.9434787232   0.00000  Uiso   1.00       -0.000000
C3         C    0.9947908748    0.9779050089    0.9436087232   0.00000  Uiso   1.00       -0.000000
C4         C    0.9908828748    0.0134850089    0.9163147232   0.00000  Uiso   1.00       -0.000000
C5         C    0.9905328748    0.9863250089    0.9164007232   0.00000  Uiso   1.00       -0.000000
N6         N    0.0003868748    0.0399490089    0.9998907232   0.00000  Uiso   1.00       -0.000000
C7         C    0.9994728748    0.0566510089    0.9778247232   0.00000  Uiso   1.00       -0.000000
C8         C    0.0022388748    0.0567510089    0.0218267232   0.00000  Uiso   1.00       -0.000000
C9         C    0.0024808748    0.0842510089    0.0132727232   0.00000  Uiso   1.00       -0.000000
C10        C    0.0011748748    0.0841770089    0.9861407232   0.00000  Uiso   1.00       -0.000000
N11        N    0.0020368748    0.0001090089    0.0399007232   0.00000  Uiso   1.00       -0.000000
C12        C    0.0033568748    0.0221910089    0.0565627232   0.00000  Uiso   1.00       -0.000000
C13        C    0.0036428748    0.9781110089    0.0566467232   0.00000  Uiso   1.00       -0.000000
C14        C    0.0060348748    0.0138110089    0.0840087232   0.00000  Uiso   1.00       -0.000000
C15        C    0.0062488748    0.9866330089    0.0840567232   0.00000  Uiso   1.00       -0.000000
N16        N    0.0001788748    0.9601350089    0.0000847232   0.00000  Uiso   1.00       -0.000000
C17        C    0.9987308748    0.9433450089    0.9781147232   0.00000  Uiso   1.00       -0.000000
C18        C    0.0022888748    0.9434150089    0.0220567232   0.00000  Uiso   1.00       -0.000000
C19        C    0.0021948748    0.9158770089    0.0136207232   0.00000  Uiso   1.00       -0.000000
C20        C    0.0003368748    0.9158410089    0.9865227232   0.00000  Uiso   1.00       -0.000000
X21        C    0.9968428748    0.0488330089    0.9510927232   0.00000  Uiso   1.00       -0.000000
X22        C    0.9958588748    0.9510590089    0.9513747232   0.00000  Uiso   1.00       -0.000000
X23        C    0.0038268748    0.9512350089    0.0488747232   0.00000  Uiso   1.00       -0.000000
X24        C    0.0034148748    0.0490370089    0.0486927232   0.00000  Uiso   1.00       -0.000000
H25        H    0.9882108748    0.0268990089    0.8996127232   0.00000  Uiso   1.00       -0.000000
H26        H    0.9875188748    0.9728830089    0.8997767232   0.00000  Uiso   1.00       -0.000000
H27        H    0.0036408748    0.1011790089    0.0266107232   0.00000  Uiso   1.00       -0.000000
H28        H    0.0011228748    0.1010310089    0.9726607232   0.00000  Uiso   1.00       -0.000000
H29        H    0.0078268748    0.0272970089    0.1007867232   0.00000  Uiso   1.00       -0.000000
H30        H    0.0082488748    0.9732410089    0.1008827232   0.00000  Uiso   1.00       -0.000000
H31        H    0.0034728748    0.8989990089    0.0270127232   0.00000  Uiso   1.00       -0.000000
H32        H    0.9998868748    0.8989290089    0.9731227232   0.00000  Uiso   1.00       -0.000000
Co33      Co    0.9877600000    0.2273540000    0.2800240000   0.00000  Uiso   1.00       -0.000000
loop_
_geom_bond_atom_site_label_1
_geom_bond_atom_site_label_2
_geom_bond_distance
_geom_bond_site_symmetry_2
_ccdc_geom_bond_type
N1           C2 1.384       .   S
N1           C3 1.384       .   S
C2           C4 1.440       .   S
C2          X21 1.398       .   A
C3           C5 1.440       .   S
C3          X22 1.398       .   A
C4           C5 1.358       .   S
C4          H25 1.079       .   S
C5          H26 1.080       .   S
N6           C7 1.384       .   S
N6           C8 1.385       .   S
C7          C10 1.440       .   S
C7          X21 1.399       .   A
C8           C9 1.440       .   S
C8          X24 1.399       .   A
C9          C10 1.358       .   S
C9          H27 1.079       .   S
C10         H28 1.079       .   S
N11         C12 1.385       .   S
N11         C13 1.385       .   S
C12         C14 1.441       .   S
C12         X24 1.399       .   A
C13         C15 1.441       .   S
C13         X23 1.399       .   A
C14         C15 1.359       .   S
C14         H29 1.080       .   S
C15         H30 1.080       .   S
N16         C17 1.384       .   S
N16         C18 1.385       .   S
C17         C20 1.440       .   S
C17         X22 1.399       .   A
C18         C19 1.440       .   S
C18         X23 1.399       .   A
C19         C20 1.358       .   S
C19         H31 1.079       .   S
C20         H32 1.079       .   S
