data_tricenter
_audit_creation_date              2024-11-08
_audit_creation_method            'MOFbuilder'
_symmetry_space_group_name_H-M    'P1'
_symmetry_Int_Tables_number       1
_symmetry_cell_setting            triclinic
loop_
_symmetry_equiv_pos_as_xyz
  x,y,z
_cell_length_a                    50
_cell_length_b                    50
_cell_length_c                    50
_cell_angle_alpha                 90
_cell_angle_beta                  90
_cell_angle_gamma                 90
loop_
_atom_site_label
_atom_site_type_symbol
_atom_site_fract_x
_atom_site_fract_y
_atom_site_fract_z
X1         C    0.9762083267    0.0049512549    0.0135017654   0.00000  Uiso   1.00       -0.000000
H2         H    0.0003643267    0.0179552549    0.0465157654   0.00000  Uiso   1.00       -0.000000
H3         H    0.0430023267    0.9912592549    0.9772237654   0.00000  Uiso   1.00       -0.000000
H4         H    0.9573743267    0.9908552549    0.9775977654   0.00000  Uiso   1.00       -0.000000
C5         C    0.0003123267    0.0101052549    0.0263477654   0.00000  Uiso   1.00       -0.000000
X6         C    0.0243523267    0.0051772549    0.0132917654   0.00000  Uiso   1.00       -0.000000
C7         C    0.0242863267    0.9950952549    0.9873877654   0.00000  Uiso   1.00       -0.000000
X8         C    0.0001803267    0.9899412549    0.9745417654   0.00000  Uiso   1.00       -0.000000
C9         C    0.9761423267    0.9948692549    0.9875977654   0.00000  Uiso   1.00       -0.000000
loop_
_geom_bond_atom_site_label_1
_geom_bond_atom_site_label_2
_geom_bond_distance
_geom_bond_site_symmetry_2
_ccdc_geom_bond_type
X1           C5 1.390       .   A
X1           C9 1.390       .   A
H2           C5 1.082       .   S
H3           C7 1.082       .   S
H4           C9 1.082       .   S
C5           X6 1.390       .   A
X6           C7 1.390       .   A
C7           X8 1.390       .   A
X8           C9 1.390       .   A
