data_tricenter
_audit_creation_date              2024-12-10
_audit_creation_method            'MOFbuilder'
_symmetry_space_group_name_H-M    'P1'
_symmetry_Int_Tables_number       1
_symmetry_cell_setting            triclinic
loop_
_symmetry_equiv_pos_as_xyz
  x,y,z
_cell_length_a                    50
_cell_length_b                    50
_cell_length_c                    50
_cell_angle_alpha                 90
_cell_angle_beta                  90
_cell_angle_gamma                 90
loop_
_atom_site_label
_atom_site_type_symbol
_atom_site_fract_x
_atom_site_fract_y
_atom_site_fract_z
X1         C    0.9761588234    0.0049465893    0.0134123842   0.00000  Uiso   1.00       -0.000000
H2         H    0.0003148234    0.0179505893    0.0464263842   0.00000  Uiso   1.00       -0.000000
H3         H    0.0429528234    0.9912545893    0.9771343842   0.00000  Uiso   1.00       -0.000000
H4         H    0.9573248234    0.9908505893    0.9775083842   0.00000  Uiso   1.00       -0.000000
C5         C    0.0002628234    0.0101005893    0.0262583842   0.00000  Uiso   1.00       -0.000000
X6         C    0.0243028234    0.0051725893    0.0132023842   0.00000  Uiso   1.00       -0.000000
C7         C    0.0242368234    0.9950905893    0.9872983842   0.00000  Uiso   1.00       -0.000000
X8         C    0.0001308234    0.9899365893    0.9744523842   0.00000  Uiso   1.00       -0.000000
C9         C    0.9760928234    0.9948645893    0.9875083842   0.00000  Uiso   1.00       -0.000000
loop_
_geom_bond_atom_site_label_1
_geom_bond_atom_site_label_2
_geom_bond_distance
_geom_bond_site_symmetry_2
_ccdc_geom_bond_type
X1           C5 0.028       .   A
X1           C9 0.028       .   A
H2           C5 0.022       .   S
H3           C7 0.022       .   S
H4           C9 0.022       .   S
C5           X6 0.028       .   A
X6           C7 0.028       .   A
C7           X8 0.028       .   A
X8           C9 0.028       .   A
