data_cdl_v1-4c_Cu_1_Ch_1-1B_4H_Ch
_audit_creation_date              2024-08-05
_audit_creation_method            'tobacco_3.0'
_symmetry_space_group_name_H-M    'P1'
_symmetry_Int_Tables_number       1
_symmetry_cell_setting            triclinic
loop_
_symmetry_equiv_pos_as_xyz
  x,y,z
_cell_length_a                    22.36950327019972
_cell_length_b                    22.369327841723663
_cell_length_c                    44.739007583770295
_cell_angle_alpha                 89.99999864346246
_cell_angle_beta                  89.99999884207412
_cell_angle_gamma                 90.00000000002323
loop_
_atom_site_label
_atom_site_type_symbol
_atom_site_fract_x
_atom_site_fract_y
_atom_site_fract_z
_atom_site_charge
O1         O    0.0497066622    0.9999996386    0.0816324683         -1.3557
O2         O    0.0497040625    0.9999987116    0.1683679143         -1.3655
O3         O    0.0497022607    0.9132612132    0.1250039129         -1.2517
O4         O    0.0497084745    0.0867434574    0.1249996316         -1.3358
O5         O    0.9502977498    0.0867451073    0.1249992489         -1.3313
O6         O    0.9502916986    0.9132691856    0.1250003706         -1.2439
O7         O    0.9502933378    0.0000003614    0.1683675317         -1.3689
O8         O    0.9502959375    0.0000012884    0.0816320857         -1.3567
Cu9       Cu    0.0587771832    0.9999982640    0.1250025888          1.0456
Cu10      Cu    0.9412228168    0.0000017360    0.1249974112          1.0433
C11        C    0.0000003731    0.9999995244    0.0688433983          0.3063
C12        C    0.9999996269    0.0000004756    0.1811566017          0.2977
C13        C    1.0000000000    0.8876898256    0.1250000003          0.2191
C14        C    0.0000000000    0.1123101744    0.1249999997          0.2819
O15        O    0.0497066674    0.4999996465    0.0816321985         -1.3557
O16        O    0.0497040676    0.4999987147    0.1683676445         -1.3655
O17        O    0.0497022658    0.4132612187    0.1250036419         -1.2517
O18        O    0.0497084797    0.5867434629    0.1249993630         -1.3358
O19        O    0.9502977550    0.5867451128    0.1249989803         -1.3313
O20        O    0.9502917037    0.4132691911    0.1250000995         -1.2439
O21        O    0.9502933430    0.5000003645    0.1683672619         -1.3689
O22        O    0.9502959427    0.5000012963    0.0816318159         -1.3567
Cu23      Cu    0.0587771884    0.4999982695    0.1250023190          1.0456
Cu24      Cu    0.9412228220    0.5000017415    0.1249971414          1.0433
C25        C    0.0000003783    0.4999995331    0.0688431285          0.3063
C26        C    0.9999996320    0.5000004779    0.1811563319          0.2977
C27        C    0.0000000052    0.3876898311    0.1249997290          0.2191
C28        C    0.0000000052    0.6123101799    0.1249997314          0.2819
O29        O    0.5497067269    0.9999976769    0.1683654487         -1.3557
O30        O    0.5497044747    0.9999987279    0.0816300027         -1.3655
O31        O    0.5497024992    0.0867361643    0.1249940350         -1.2517
O32        O    0.5497087130    0.9132539201    0.1249982544         -1.3358
O33        O    0.4502979883    0.9132522702    0.1249985395         -1.3313
O34        O    0.4502919371    0.0867281918    0.1249974798         -1.2439
O35        O    0.4502937500    0.9999970780    0.0816302877         -1.3689
O36        O    0.4502960023    0.9999960271    0.1683657337         -1.3567
Cu37      Cu    0.5587774217    0.9999991135    0.1249953371          1.0456
Cu38      Cu    0.4412230553    0.9999956415    0.1250003993          1.0433
C39        C    0.5000003866    0.9999977728    0.1811544699          0.3063
C40        C    0.5000000904    0.9999969821    0.0688412665          0.2977
C41        C    0.5000002385    0.1123075518    0.1249979080          0.2191
C42        C    0.5000002385    0.8876872031    0.1249978284          0.2819
O43        O    0.5497064928    0.4999972705    0.0816304956         -1.3557
O44        O    0.5497046991    0.4999962541    0.1683659416         -1.3655
O45        O    0.5497024943    0.4132588004    0.1250019179         -1.2517
O46        O    0.5497087081    0.5867410446    0.1249976812         -1.3358
O47        O    0.4502979834    0.5867426945    0.1249975295         -1.3313
O48        O    0.4502919322    0.4132667728    0.1249986065         -1.2439
O49        O    0.4502939744    0.4999979039    0.1683657899         -1.3689
O50        O    0.4502957681    0.4999989203    0.0816303439         -1.3567
Cu51      Cu    0.5587774168    0.4999958512    0.1250005950          1.0456
Cu52      Cu    0.4412230504    0.4999993232    0.1249956905          1.0433
C53        C    0.5000000848    0.4999971695    0.0688415411          0.3063
C54        C    0.5000003823    0.4999980049    0.1811547445          0.2977
C55        C    0.5000002336    0.3876874128    0.1249981141          0.2191
C56        C    0.5000002336    0.6123077616    0.1249981714          0.2819
O57        O    0.0497115073    0.9999982512    0.9183658285         -1.3557
O58        O    0.0497100666    0.9999991698    0.8316303825         -1.3655
O59        O    0.0497076854    0.0867366724    0.8749943818         -1.2517
O60        O    0.0497138992    0.9132544281    0.8749986674         -1.3358
O61        O    0.9503031745    0.9132527783    0.8749987199         -1.3313
O62        O    0.9502971232    0.0867286999    0.8749975941         -1.2439
O63        O    0.9502993420    0.9999975199    0.8316304351         -1.3689
O64        O    0.9503007827    0.9999966013    0.9183658811         -1.3567
Cu65      Cu    0.0587826079    0.9999996215    0.8749957381          1.0456
Cu66      Cu    0.9412282414    0.9999961496    0.8750005254          1.0433
C67        C    0.0000050474    0.9999983666    0.9311547335          0.3063
C68        C    0.0000058019    0.9999974045    0.8188415301          0.2977
C69        C    0.0000054246    0.1123080599    0.8749981287          0.2191
C70        C    0.0000054246    0.8876877112    0.8749981348          0.2819
O71        O    0.0497115116    0.4999982402    0.9183655612         -1.3557
O72        O    0.0497100694    0.4999991725    0.8316301151         -1.3655
O73        O    0.0497076889    0.5867366682    0.8749941178         -1.2517
O74        O    0.0497139027    0.4132544240    0.8749983966         -1.3358
O75        O    0.9503031780    0.4132527741    0.8749984496         -1.3313
O76        O    0.9502971267    0.5867286958    0.8749973306         -1.2439
O77        O    0.9502993447    0.4999975226    0.8316301681         -1.3689
O78        O    0.9503007869    0.4999965904    0.9183656141         -1.3567
Cu79      Cu    0.0587826114    0.4999996174    0.8749954707          1.0456
Cu80      Cu    0.9412282449    0.4999961454    0.8750002585          1.0433
C81        C    0.0000050519    0.4999983536    0.9311544664          0.3063
C82        C    0.0000058045    0.4999974092    0.8188412629          0.2977
C83        C    0.0000054282    0.6123080558    0.8749978660          0.2191
C84        C    0.0000054282    0.3876877070    0.8749978633          0.2819
O85        O    0.4502943675    0.9999963363    0.9183653267         -1.3557
O86        O    0.4502968944    0.9999951682    0.8316298807         -1.3655
O87        O    0.4502987326    0.9132577904    0.8749939445         -1.2517
O88        O    0.4502925188    0.0867400346    0.8749981012         -1.3358
O89        O    0.5497032434    0.0867416845    0.8749984629         -1.3313
O90        O    0.5497092947    0.9132657628    0.8749974660         -1.2439
O91        O    0.5497076190    0.9999968181    0.8316302425         -1.3689
O92        O    0.5497050922    0.9999979862    0.9183656885         -1.3567
Cu93      Cu    0.4412238101    0.9999948412    0.8749952081          1.0456
Cu94      Cu    0.5587781765    0.9999983132    0.8750003611          1.0433
C95        C    0.5000006673    0.9999962578    0.9311543863          0.3063
C96        C    0.5000013192    0.9999968967    0.8188411829          0.2977
C97        C    0.5000009933    0.8876864028    0.8749978650          0.2191
C98        C    0.5000009933    0.1123067516    0.8749977042          0.2819
O99        O    0.5497071121    0.4999966715    0.9183657355         -1.3557
O100       O    0.5497055936    0.4999976791    0.8316302895         -1.3655
O101       O    0.5497032512    0.5867351372    0.8749943110         -1.2517
O102       O    0.5497094650    0.4132528929    0.8749985521         -1.3358
O103       O    0.4502987403    0.4132512431    0.8749986270         -1.3313
O104       O    0.4502926891    0.5867271647    0.8749975456         -1.2439
O105       O    0.4502948689    0.4999960292    0.8316303643         -1.3689
O106       O    0.4502963874    0.4999950216    0.9183658103         -1.3567
Cu107     Cu    0.5587781737    0.4999980863    0.8749956431          1.0456
Cu108     Cu    0.4412238072    0.4999946144    0.8750004568          1.0433
C109       C    0.5000006636    0.4999967738    0.9311546517          0.3063
C110       C    0.5000013174    0.4999959269    0.8188414482          0.2977
C111       C    0.5000009905    0.6123065247    0.8749980757          0.2191
C112       C    0.5000009905    0.3876861760    0.8749980242          0.2819
O113       O    0.0867373325    0.0497088892    0.3750002008         -1.3557
O114       O    0.9132664364    0.0497068658    0.3750009937         -1.3655
O115       O    0.9999947710    0.0497043996    0.4183692371         -1.2517
O116       O    0.0000026742    0.0497113659    0.3316287972         -1.3358
O117       O    0.0000031112    0.9502998616    0.3316277579         -1.3313
O118       O    0.0000015274    0.9502930579    0.4183650365         -1.2439
O119       O    0.9132668734    0.9502953615    0.3749999544         -1.3689
O120       O    0.0867377695    0.9502973849    0.3749991615         -1.3567
Cu121     Cu    0.9999971194    0.0587797695    0.3750010724          1.0456
Cu122     Cu    0.0000070865    0.9412244812    0.3749990828          1.0433
C123       C    0.1123153090    0.0000021253    0.3750001021          0.3063
C124       C    0.8876888969    0.0000021253    0.3750000531          0.2977
C125       C    0.0000025293    0.0000016382    0.4311547231          0.2191
C126       C    0.0000016767    0.0000026125    0.3188454321          0.2819
O127       O    0.9132668765    0.5497088296    0.3749994487         -1.3557
O128       O    0.0867377725    0.5497068062    0.3749986562         -1.3655
O129       O    0.0000094384    0.5497050788    0.3316304126         -1.2517
O130       O    0.0000015343    0.5497105675    0.4183708525         -1.3358
O131       O    0.0000010973    0.4502990632    0.4183714708         -1.3313
O132       O    0.0000026819    0.4502937370    0.3316341922         -1.2439
O133       O    0.0867373355    0.4502953019    0.3749992745         -1.3689
O134       O    0.9132664395    0.4502973253    0.3750000671         -1.3567
Cu135     Cu    0.0000070895    0.5587797099    0.3749986158          1.0456
Cu136     Cu    0.9999971224    0.4412244216    0.3750001075          1.0433
C137       C    0.8876888999    0.5000020657    0.3749993369          0.3063
C138       C    0.1123153121    0.5000020657    0.3749993864          0.2977
C139       C    0.0000016802    0.5000025352    0.3188447161          0.2191
C140       C    0.0000025318    0.5000015963    0.4311540071          0.2819
O141       O    0.5000020086    0.9502925018    0.3316321828         -1.3557
O142       O    0.5000009659    0.9502947703    0.4183676288         -1.3655
O143       O    0.4132642056    0.9502967378    0.3750035983         -1.2517
O144       O    0.5867450893    0.9502905239    0.3749993751         -1.3358
O145       O    0.5867467392    0.0497020282    0.3749990852         -1.3313
O146       O    0.4132721780    0.0497080795    0.3750001487         -1.2439
O147       O    0.5000026157    0.0497062746    0.4183673389         -1.3689
O148       O    0.5000036585    0.0497040061    0.3316318929         -1.3567
Cu149     Cu    0.5000005762    0.9412217441    0.3750022948          1.0456
Cu150     Cu    0.5000040481    0.0587770324    0.3749972269          1.0433
C151       C    0.5000019115    0.9999992296    0.3188431591          0.3063
C152       C    0.5000027128    0.9999995469    0.4311563626          0.2977
C153       C    0.3876930186    0.9999993882    0.3749997235          0.2191
C154       C    0.6123116058    0.9999993882    0.3749997982          0.2819
O155       O    0.4132670854    0.5497063232    0.3749985540         -1.3557
O156       O    0.5867379815    0.5497042998    0.3749977805         -1.3655
O157       O    0.5000096664    0.5497024970    0.3316295274         -1.2517
O158       O    0.5000017242    0.5497081365    0.4183699673         -1.3358
O159       O    0.5000012872    0.4502966322    0.4183706288         -1.3313
O160       O    0.5000029099    0.4502911553    0.3316333502         -1.2439
O161       O    0.5867375445    0.4502927955    0.3749984420         -1.3689
O162       O    0.4132666484    0.4502948189    0.3749992155         -1.3567
Cu163     Cu    0.5000072985    0.5587772035    0.3749977266          1.0456
Cu164     Cu    0.4999973314    0.4412219152    0.3749992694          1.0433
C165       C    0.3876891089    0.4999995594    0.3749984609          0.3063
C166       C    0.6123155210    0.4999995594    0.3749985351          0.2977
C167       C    0.5000019138    0.4999999312    0.3188438525          0.2191
C168       C    0.5000027160    0.4999991875    0.4311531435          0.2819
O169       O    0.0867385889    0.0497024264    0.6249986283         -1.3557
O170       O    0.9132676928    0.0497004029    0.6249994196         -1.3655
O171       O    0.9999960257    0.0496979452    0.6683676638         -1.2517
O172       O    0.0000039323    0.0497048946    0.5816272239         -1.3358
O173       O    0.0000043693    0.9502933903    0.5816261894         -1.3313
O174       O    0.0000027822    0.9502866035    0.6683634680         -1.2439
O175       O    0.9132681298    0.9502888986    0.6249983851         -1.3689
O176       O    0.0867390259    0.9502909221    0.6249975938         -1.3567
Cu177     Cu    0.9999983758    0.0587733067    0.6249994986          1.0456
Cu178     Cu    0.0000083429    0.9412180183    0.6249975148          1.0433
C179       C    0.1123165654    0.9999956625    0.6249985323          0.3063
C180       C    0.8876901533    0.9999956625    0.6249984811          0.2977
C181       C    0.0000037835    0.9999951863    0.6811531522          0.2191
C182       C    0.0000029352    0.9999961387    0.5688438612          0.2819
O183       O    0.0867385852    0.5497025898    0.6249979049         -1.3557
O184       O    0.9132676891    0.5497005664    0.6249986962         -1.3655
O185       O    0.9999960220    0.5496981135    0.6683669404         -1.2517
O186       O    0.0000039285    0.5497050533    0.5816265005         -1.3358
O187       O    0.0000043656    0.4502935490    0.5816254688         -1.3313
O188       O    0.0000027785    0.4502867718    0.6683627473         -1.2439
O189       O    0.9132681261    0.4502890621    0.6249976644         -1.3689
O190       O    0.0867390222    0.4502910855    0.6249968732         -1.3567
Cu191     Cu    0.9999983721    0.5587734701    0.6249987749          1.0456
Cu192     Cu    0.0000083392    0.4412181818    0.6249967944          1.0433
C193       C    0.1123165617    0.4999958259    0.6249978102          0.3063
C194       C    0.8876901496    0.4999958259    0.6249977591          0.2977
C195       C    0.0000037799    0.4999953560    0.6811524302          0.2191
C196       C    0.0000029315    0.4999962959    0.5688431392          0.2819
O197       O    0.4132679111    0.9502920263    0.6249993724         -1.3557
O198       O    0.5867388071    0.9502940498    0.6250000751         -1.3655
O199       O    0.5000105594    0.9502958959    0.6683683636         -1.2517
O200       O    0.5000024826    0.9502901697    0.5816279237         -1.3358
O201       O    0.5000020456    0.0497016740    0.5816272374         -1.3313
O202       O    0.5000038029    0.0497072376    0.6683645159         -1.2439
O203       O    0.5867383701    0.0497055540    0.6249993887         -1.3689
O204       O    0.4132674741    0.0497035306    0.6249986861         -1.3567
Cu205     Cu    0.5000081242    0.9412211460    0.6250001667          1.0456
Cu206     Cu    0.4999981571    0.0587764344    0.6249985945          1.0433
C207       C    0.3876899345    0.9999987902    0.6249994635          0.3063
C208       C    0.6123163467    0.9999987902    0.6249992976          0.2977
C209       C    0.5000028266    0.9999984745    0.6811540261          0.2191
C210       C    0.5000034546    0.9999991059    0.5688447351          0.2819
O211       O    0.4132679148    0.4502875122    0.6249980954         -1.3557
O212       O    0.5867388108    0.4502895356    0.6249987984         -1.3655
O213       O    0.5000105628    0.4502913472    0.6683670867         -1.2517
O214       O    0.5000024865    0.4502856901    0.5816266469         -1.3358
O215       O    0.5000020495    0.5496971944    0.5816259803         -1.3313
O216       O    0.5000038063    0.5497026890    0.6683632589         -1.2439
O217       O    0.5867383738    0.5497010399    0.6249981318         -1.3689
O218       O    0.4132674778    0.5496990165    0.6249974288         -1.3567
Cu219     Cu    0.5000081279    0.4412166319    0.6249988880          1.0456
Cu220     Cu    0.4999981608    0.5587719202    0.6249973392          1.0433
C221       C    0.3876899382    0.4999942761    0.6249981964          0.3063
C222       C    0.6123163504    0.4999942761    0.6249980308          0.2977
C223       C    0.5000028300    0.4999939157    0.6811527591          0.2191
C224       C    0.5000034586    0.4999946365    0.5688434681          0.2819
C535       C    0.7844250454    0.4403741265    0.6249978610          0.3708
C536       C    0.8188477863    0.4999954385    0.6249978270          0.3708
C537       C    0.7844259909    0.5596163630    0.6249978610          0.3708
C538       C    0.7155814545    0.5596159756    0.6249979289          0.3708
C539       C    0.6811587136    0.4999946635    0.6249979629          0.3708
C540       C    0.7155805091    0.4403737390    0.6249979289          0.3708
H541       H    0.8099061148    0.3962391563    0.6249978359          0.3708
H542       H    0.8099044920    0.6037497331    0.6249978359          0.3708
H543       H    0.6901003852    0.6037509457    0.6249979541          0.3708
H544       H    0.6901020080    0.3962403689    0.6249979541          0.3708
C525       C    0.2155816760    0.5092839765    0.6544442732          0.3708
C526       C    0.1811587136    0.4999954385    0.6249979068          0.3708
C527       C    0.2155802876    0.4907065130    0.5955516368          0.3708
C528       C    0.2844248240    0.4907061255    0.5955517334          0.3708
C529       C    0.3188477863    0.4999946635    0.6249980998          0.3708
C530       C    0.2844262124    0.5092835890    0.6544443698          0.3708
H531       H    0.1901007706    0.5161601941    0.6762421613          0.3708
H532       H    0.1901016225    0.4838308761    0.5737546091          0.3708
H533       H    0.3099057294    0.4838299079    0.5737538452          0.3708
H534       H    0.3099048774    0.5161592259    0.6762413974          0.3708
C515       C    0.7844253870    0.0596179537    0.6249987873          0.3708
C516       C    0.8188477863    0.9999964444    0.6249986853          0.3708
C517       C    0.7844256493    0.9403757171    0.6249987873          0.3708
C518       C    0.7155811129    0.9403764990    0.6249989914          0.3708
C519       C    0.6811587136    0.9999980083    0.6249990935          0.3708
C520       C    0.7155808507    0.0596187356    0.6249989915          0.3708
H521       H    0.8099067093    0.1037527778    0.6249987118          0.3708
H522       H    0.8099038975    0.8962422010    0.6249987118          0.3708
H523       H    0.6900997907    0.8962416749    0.6249990670          0.3708
H524       H    0.6901026024    0.1037522517    0.6249990670          0.3708
C505       C    0.2155810035    0.0533235841    0.6383304639          0.3708
C506       C    0.1811587136    0.9999964444    0.6249987651          0.3708
C507       C    0.2155809601    0.9466700866    0.6116672990          0.3708
C508       C    0.2844254964    0.9466708686    0.6116675318          0.3708
C509       C    0.3188477863    0.9999980083    0.6249992307          0.3708
C510       C    0.2844255399    0.0533243660    0.6383306968          0.3708
H511       H    0.1900996003    0.0927989399    0.6481992116          0.3708
H512       H    0.1901027928    0.9071958397    0.6017988010          0.3708
H513       H    0.3099068996    0.9071955128    0.6017987842          0.3708
H514       H    0.3099037072    0.0927986129    0.6481991948          0.3708
C495       C    0.4420020248    0.4861948545    0.4827875412          0.3708
C496       C    0.5000029017    0.4999980497    0.4655760384          0.3708
C497       C    0.5580039642    0.5138001072    0.4827868031          0.3708
C498       C    0.5580041498    0.5137989695    0.5172090704          0.3708
C499       C    0.5000032730    0.4999957742    0.5344205732          0.3708
C500       C    0.4420022104    0.4861937167    0.5172098085          0.3708
H501       H    0.3990661733    0.4759777470    0.4700471050          0.3708
H502       H    0.6009378427    0.5240176201    0.4700474546          0.3708
H503       H    0.6009400013    0.5240160770    0.5299495066          0.3708
H504       H    0.3990683319    0.4759762039    0.5299491570          0.3708
C485       C    0.4453952243    0.9760698435    0.4827898745          0.3708
C486       C    0.5000028982    0.9999994366    0.4655782815          0.3708
C487       C    0.5546107577    0.0239289195    0.4827889558          0.3708
C488       C    0.5546109431    0.0239288092    0.5172112231          0.3708
C489       C    0.5000032691    0.9999992161    0.5344228162          0.3708
C490       C    0.4453954097    0.9760697333    0.5172121419          0.3708
H491       H    0.4049712244    0.9583558108    0.4700495052          0.3708
H492       H    0.5950328921    0.0416422766    0.4700495404          0.3708
H493       H    0.5950349430    0.0416428420    0.5299515925          0.3708
H494       H    0.4049732753    0.9583563762    0.5299515572          0.3708
C475       C    0.9415688429    0.4881627731    0.4827877728          0.3708
C476       C    0.0000026317    0.5000002712    0.4655763058          0.3708
C477       C    0.0584365204    0.5118364442    0.4827871061          0.3708
C478       C    0.0584366204    0.5118351191    0.5172093735          0.3708
C479       C    0.0000028315    0.4999976210    0.5344208405          0.3708
C480       C    0.9415689428    0.4881614480    0.5172100402          0.3708
H481       H    0.8983125876    0.4794009307    0.4700473102          0.3708
H482       H    0.1016908525    0.5205988929    0.4700477840          0.3708
H483       H    0.1016928757    0.5205969615    0.5299498360          0.3708
H484       H    0.8983146107    0.4793989994    0.5299493623          0.3708
C465       C    0.7844242130    0.4403800076    0.3749990362          0.3708
C466       C    0.8188467468    0.5000014392    0.3749991364          0.3708
C467       C    0.7844247443    0.5596222441    0.3749990362          0.3708
C468       C    0.7155802079    0.5596216175    0.3749988358          0.3708
C469       C    0.6811576741    0.5000001859    0.3749987356          0.3708
C470       C    0.7155796767    0.4403793810    0.3749988358          0.3708
H471       H    0.8099054357    0.3962451259    0.3749991104          0.3708
H472       H    0.8099030921    0.6037557027    0.3749991104          0.3708
H473       H    0.6900989853    0.6037564992    0.3749987616          0.3708
H474       H    0.6901013288    0.3962459224    0.3749987616          0.3708
C455       C    0.2155809436    0.5476208709    0.3570615265          0.3708
C456       C    0.1811576741    0.5000014392    0.3749991550          0.3708
C457       C    0.2155789410    0.4523813808    0.3929365521          0.3708
C458       C    0.2844234773    0.4523807542    0.3929363208          0.3708
C459       C    0.3188467468    0.5000001859    0.3749986923          0.3708
C460       C    0.2844254799    0.5476202443    0.3570612951          0.3708
H461       H    0.1901002655    0.5828720829    0.3437831936          0.3708
H462       H    0.1901000486    0.4171321397    0.4062144887          0.3708
H463       H    0.3099041554    0.4171295422    0.4062146537          0.3708
H464       H    0.3099043723    0.5828694854    0.3437833586          0.3708
C445       C    0.9480527264    0.0292542778    0.4827888932          0.3708
C446       C    0.0000026307    0.0000002633    0.4655770248          0.3708
C447       C    0.0519526366    0.9707448740    0.4827874237          0.3708
C448       C    0.0519527380    0.9707434991    0.5172096911          0.3708
C449       C    0.0000028337    0.9999975136    0.5344215595          0.3708
C450       C    0.9480528279    0.0292529029    0.5172111605          0.3708
H451       H    0.9095962286    0.0509108646    0.4700487277          0.3708
H452       H    0.0904074152    0.9490902306    0.4700478046          0.3708
H453       H    0.0904092359    0.9490869122    0.5299498566          0.3708
H454       H    0.9095980492    0.0509075462    0.5299507797          0.3708
C435       C    0.7844220514    0.9578426009    0.3960790402          0.3708
C436       C    0.8188447877    0.0000014411    0.3749999894          0.3708
C437       C    0.7844229877    0.0421595970    0.3539208748          0.3708
C438       C    0.7155784513    0.0421589127    0.3539208111          0.3708
C439       C    0.6811557150    0.0000000725    0.3749998619          0.3708
C440       C    0.7155775150    0.9578419166    0.3960789765          0.3708
H441       H    0.8099031241    0.9266346153    0.4116830601          0.3708
H442       H    0.8099014854    0.0733667548    0.3383175692          0.3644
H443       H    0.6900973786    0.0733668982    0.3383167912          0.3708
H444       H    0.6900990173    0.9266347587    0.4116822821          0.3708
C425       C    0.2155820915    0.9440312103    0.3647281222          0.3708
C426       C    0.1811596274    0.0000014411    0.3750000074          0.3708
C427       C    0.2155816997    0.0559709876    0.3852717981          0.3708
C428       C    0.2844262361    0.0559703033    0.3852717034          0.3708
C429       C    0.3188487001    0.0000000725    0.3749998182          0.3708
C430       C    0.2844266279    0.9440305260    0.3647280275          0.3708
H431       H    0.1901008173    0.9025992083    0.3571243291          0.3708
H432       H    0.1901034035    0.0974017247    0.3928753361          0.3708
H433       H    0.3099075103    0.0974023052    0.3928754965          0.3708
H434       H    0.3099049241    0.9025997888    0.3571244895          0.3708
C415       C    0.4621807845    0.4539059148    0.7672078986          0.3708
C416       C    0.5000016955    0.4999954241    0.7844193710          0.3708
C417       C    0.5378229847    0.5460844306    0.7672085761          0.3708
C418       C    0.5378233629    0.5460839278    0.7327863087          0.3708
C419       C    0.5000024519    0.4999944185    0.7155748363          0.3708
C420       C    0.4621811627    0.4539054120    0.7327856312          0.3708
H421       H    0.4341832068    0.4197880788    0.7799483571          0.3708
H422       H    0.5658190856    0.5802011802    0.7799479022          0.3708
H423       H    0.5658209406    0.5802017638    0.7200458502          0.3708
H424       H    0.4341850618    0.4197886624    0.7200463051          0.3708
C405       C    0.5198319448    0.0562241749    0.7672085485          0.3708
C406       C    0.5000016961    0.9999972911    0.7844198719          0.3708
C407       C    0.4801718242    0.9437708017    0.7672089278          0.3708
C408       C    0.4801722010    0.9437711962    0.7327866605          0.3708
C409       C    0.5000024498    0.9999980800    0.7155753371          0.3708
C410       C    0.5198323217    0.0562245694    0.7327862811          0.3708
H411       H    0.5345112006    0.0978463814    0.7799491175          0.3708
H412       H    0.4654929170    0.9021500828    0.7799481435          0.3708
H413       H    0.4654929452    0.9021489898    0.7200460915          0.3708
H414       H    0.5345112289    0.0978452884    0.7200470654          0.3708
C395       C    0.4403895520    0.7844181926    0.8744739729          0.3708
C396       C    0.5000009926    0.8188415400    0.8749979177          0.3708
C397       C    0.5596124325    0.7844198112    0.8755219152          0.3708
C398       C    0.5596124318    0.7155747349    0.8755219678          0.3708
C399       C    0.5000009912    0.6811513875    0.8749980230          0.3708
C400       C    0.4403895513    0.7155731164    0.8744740255          0.3708
H401       H    0.3962616030    0.8098992127    0.8740860786          0.3708
H402       H    0.6037384955    0.8098987612    0.8759097538          0.3708
H403       H    0.6037403808    0.6900937149    0.8759098621          0.3708
H404       H    0.3962634883    0.6900941663    0.8740861869          0.3708
C385       C    0.4403980085    0.2155747368    0.8742721664          0.3708
C386       C    0.5000009926    0.1811513875    0.8749977842          0.3708
C387       C    0.5596039760    0.2155731146    0.8757234820          0.3708
C388       C    0.5596039753    0.2844181908    0.8757235620          0.3708
C389       C    0.5000009912    0.3188415400    0.8749979442          0.3708
C390       C    0.4403980078    0.2844198130    0.8742722464          0.3708
H391       H    0.3962763195    0.1900937180    0.8737349615          0.3708
H392       H    0.6037237792    0.1900941632    0.8762606047          0.3708
H393       H    0.6037256643    0.3098992095    0.8762607669          0.3708
H394       H    0.3962782045    0.3098987644    0.8737351237          0.3708
C375       C    0.9568477785    0.4588615100    0.7672078890          0.3708
C376       C    0.0000052983    0.4999968959    0.7844191139          0.3708
C377       C    0.0431623120    0.5411317685    0.7672080714          0.3708
C378       C    0.0431618059    0.5411312552    0.7327858041          0.3708
C379       C    0.0000042860    0.4999958693    0.7155745792          0.3708
C380       C    0.9568472723    0.4588609967    0.7327856216          0.3708
H381       H    0.9249003787    0.4284110199    0.7799485308          0.3708
H382       H    0.0751087206    0.5715813368    0.7799472143          0.3708
H383       H    0.0751092056    0.5715817453    0.7200451622          0.3708
H384       H    0.9249008637    0.4284114285    0.7200464788          0.3708
C365       C    0.0550810228    0.0228278416    0.7672077760          0.3708
C366       C    0.0000052973    0.9999968500    0.7844196085          0.3708
C367       C    0.9449290673    0.9771653038    0.7672091736          0.3708
C368       C    0.9449285627    0.9771647492    0.7327869062          0.3708
C369       C    0.0000042881    0.9999957409    0.7155750738          0.3708
C370       C    0.0550805182    0.0228272871    0.7327855087          0.3708
H371       H    0.0958517386    0.0397291161    0.7799479681          0.3708
H372       H    0.9041604680    0.9602651624    0.7799487661          0.3708
H373       H    0.9041578469    0.9602634748    0.7200467141          0.3708
H374       H    0.0958491175    0.0397274285    0.7200459161          0.3708
C355       C    0.0162361535    0.7155762672    0.8463135399          0.3708
C356       C    0.0000054273    0.6811528072    0.8749979332          0.3708
C357       C    0.9837747002    0.7155744235    0.9036823937          0.3708
C358       C    0.9837746993    0.7844194997    0.9036824609          0.3708
C359       C    0.0000054255    0.8188429597    0.8749980676          0.3708
C360       C    0.0162361526    0.7844213435    0.8463136071          0.3708
H361       H    0.0282511073    0.6900953305    0.8250795886          0.3708
H362       H    0.9717602607    0.6900953901    0.9249153875          0.3708
H363       H    0.9717597455    0.8099004365    0.9249164122          0.3708
H364       H    0.0282505922    0.8099003769    0.8250806134          0.3708
C345       C    0.0594894409    0.2155761606    0.8770150787          0.3708
C346       C    0.0000054255    0.1811528072    0.8749980624          0.3708
C347       C    0.9405214111    0.2155745301    0.8729809796          0.3708
C348       C    0.9405214120    0.2844196064    0.8729809133          0.3708
C349       C    0.0000054273    0.3188429597    0.8749979296          0.3708
C350       C    0.0594894417    0.2844212368    0.8770150124          0.3708
H351       H    0.1035230619    0.1900951449    0.8785082439          0.3708
H352       H    0.8964896719    0.1900955757    0.8714879275          0.3708
H353       H    0.8964877909    0.3099006221    0.8714877481          0.3708
H354       H    0.1035211810    0.3099001913    0.8785080645          0.3708
C335       C    0.5000007566    0.5596198455    0.2327883597          0.3708
C336       C    0.5000007652    0.4999984865    0.2155770311          0.3708
C337       C    0.5000011568    0.4403776090    0.2327879699          0.3708
C338       C    0.5000015396    0.4403780905    0.2672102373          0.3708
C339       C    0.5000015310    0.4999994496    0.2844215659          0.3708
C340       C    0.5000011394    0.5596203271    0.2672106271          0.3708
H341       H    0.5000004667    0.6037547808    0.2200477947          0.3708
H342       H    0.5000011632    0.3962442040    0.2200487503          0.3708
H343       H    0.5000018295    0.3962431553    0.2799508024          0.3708
H344       H    0.5000011330    0.6037537321    0.2799498467          0.3708
C325       C    0.5235679107    0.4452315712    0.9827874313          0.3708
C326       C    0.5000005189    0.4999968727    0.9655758290          0.3708
C327       C    0.4764329823    0.5547622731    0.9827864940          0.3708
C328       C    0.4764328377    0.5547623721    0.0172087614          0.3708
C329       C    0.5000002295    0.4999970706    0.0344203637          0.3708
C330       C    0.5235677661    0.4452316702    0.0172096987          0.3708
H331       H    0.5410140092    0.4046909501    0.9700470689          0.3708
H332       H    0.4589877368    0.5953010878    0.9700470718          0.3708
H333       H    0.4589867392    0.5953029932    0.0299491238          0.3708
H334       H    0.5410130116    0.4046928555    0.0299491209          0.3708
C315       C    0.5229308635    0.0550336619    0.2327878750          0.3708
C316       C    0.5000007679    0.9999981370    0.2155765472          0.3708
C317       C    0.4770710534    0.9449629763    0.2327874866          0.3708
C318       C    0.4770714347    0.9449633405    0.2672097540          0.3708
C319       C    0.5000015303    0.9999988654    0.2844210819          0.3708
C320       C    0.5229312447    0.0550340261    0.2672101424          0.3708
H321       H    0.5399048079    0.0957739756    0.2200473094          0.3708
H322       H    0.4600975525    0.9042241347    0.2200482676          0.3708
H323       H    0.4600974902    0.9042230267    0.2799503196          0.3708
H324       H    0.5399047457    0.0957728677    0.2799493615          0.3708
C305       C    0.4486620036    0.0303115460    0.9827870034          0.3708
C306       C    0.5000005231    0.9999964388    0.9655755590          0.3708
C307       C    0.5513388983    0.9696815128    0.9827863821          0.3708
C308       C    0.5513387540    0.9696816939    0.0172086494          0.3708
C309       C    0.5000002346    0.9999968010    0.0344200938          0.3708
C310       C    0.4486618594    0.0303117271    0.0172092707          0.3708
H311       H    0.4106582714    0.0527524653    0.9700465240          0.3708
H312       H    0.5893411126    0.9472414188    0.9700470768          0.3708
H313       H    0.5893424863    0.9472407745    0.0299491288          0.3708
H314       H    0.4106596451    0.0527518211    0.0299485760          0.3708
C295       C    0.4404073155    0.7155757491    0.1240889391          0.3708
C296       C    0.5000002348    0.6811524061    0.1249980857          0.3708
C297       C    0.5595931554    0.7155741393    0.1259071465          0.3708
C298       C    0.5595931566    0.7844192156    0.1259070607          0.3708
C299       C    0.5000002373    0.8188425586    0.1249979141          0.3708
C300       C    0.4404073167    0.7844208253    0.1240888533          0.3708
H301       H    0.3962930756    0.6900947257    0.1234159980          0.3708
H302       H    0.6037055084    0.6900951925    0.1265801223          0.3708
H303       H    0.6037073965    0.8099002389    0.1265800018          0.3708
H304       H    0.3962949636    0.8098997721    0.1234158775          0.3708
C285       C    0.5596081858    0.2155757517    0.1256132871          0.3708
C286       C    0.5000002373    0.1811524061    0.1249979595          0.3708
C287       C    0.4403922875    0.2155741367    0.1243826836          0.3708
C288       C    0.4403922863    0.2844192130    0.1243827351          0.3708
C289       C    0.5000002348    0.3188425586    0.1249980626          0.3708
C290       C    0.5596081846    0.2844208279    0.1256133386          0.3708
H291       H    0.6037335513    0.1900947303    0.1260687511          0.3708
H292       H    0.3962688094    0.1900951880    0.1239272008          0.3708
H293       H    0.3962669208    0.3099002344    0.1239272710          0.3708
H294       H    0.6037316627    0.3098997767    0.1260688213          0.3708
C275       C    0.9545963474    0.5386421269    0.2327898190          0.3708
C276       C    0.0000001441    0.5000009922    0.2155782567          0.3708
C277       C    0.0454044528    0.4613603719    0.2327889617          0.3708
C278       C    0.0454049648    0.4613608862    0.2672112291          0.3708
C279       C    0.0000011682    0.5000020209    0.2844227914          0.3708
C280       C    0.9545968595    0.5386426412    0.2672120864          0.3708
H281       H    0.9209853656    0.5672462224    0.2200494270          0.3708
H282       H    0.0790136186    0.4327571186    0.2200495691          0.3708
H283       H    0.0790159466    0.4327567907    0.2799516211          0.3708
H284       H    0.9209876936    0.5672458945    0.2799514790          0.3708
C265       C    0.9409699065    0.5083549013    0.0172090086          0.3708
C266       C    0.0000015467    0.4999992382    0.0344210648          0.3708
C267       C    0.0590343552    0.4916432802    0.0172108536          0.3708
C268       C    0.0590355236    0.4916429853    0.9827885862          0.3708
C269       C    0.0000038835    0.4999986485    0.9655765301          0.3708
C270       C    0.9409710749    0.5083546065    0.9827867413          0.3708
H271       H    0.8972702950    0.5145404807    0.0299490351          0.3708
H272       H    0.1027312337    0.4854581836    0.0299506117          0.3708
H273       H    0.1027351352    0.4854574060    0.9700485597          0.3708
H274       H    0.8972741964    0.5145397031    0.9700469831          0.3708
C255       C    0.9987688653    0.0596096744    0.2327900600          0.3708
C256       C    0.0000001394    0.0000010098    0.2155787495          0.3708
C257       C    0.0012319259    0.9403928794    0.2327897065          0.3708
C258       C    0.0012324383    0.9403934136    0.2672119738          0.3708
C259       C    0.0000011642    0.0000020783    0.2844232843          0.3708
C260       C    0.9987693777    0.0596102087    0.2672123273          0.3708
H261       H    0.9978570233    0.1037351736    0.2200494815          0.3708
H262       H    0.0021433496    0.8962688712    0.2200505003          0.3708
H263       H    0.0021442803    0.8962679145    0.2799525523          0.3708
H264       H    0.9978579540    0.1037342168    0.2799515335          0.3708
C245       C    0.0538858634    0.9744809585    0.0172103062          0.3708
C246       C    0.0000015416    0.9999992350    0.0344213333          0.3708
C247       C    0.9461183885    0.0255172220    0.0172100930          0.3708
C248       C    0.9461195571    0.0255169325    0.9827878256          0.3708
C249       C    0.0000038788    0.9999986561    0.9655767985          0.3708
C250       C    0.0538870319    0.9744806691    0.9827880388          0.3708
H251       H    0.0937733923    0.9555910201    0.0299510944          0.3708
H252       H    0.9062316998    0.0444065671    0.0299490894          0.3708
H253       H    0.9062320281    0.0444068709    0.9700470374          0.3708
H254       H    0.0937737206    0.9555913240    0.9700490424          0.3708
C235       C    0.9403839925    0.7844217300    0.1253718570          0.3708
C236       C    0.0000000013    0.8188450790    0.1249999331          0.3708
C237       C    0.0596160114    0.7844233518    0.1246279420          0.3708
C238       C    0.0596160127    0.7155782755    0.1246278748          0.3708
C239       C    0.0000000039    0.6811549265    0.1249997987          0.3708
C240       C    0.9403839938    0.7155766537    0.1253717898          0.3708
H241       H    0.8962526603    0.8099027489    0.1256472270          0.3708
H242       H    0.1037454559    0.8099023030    0.1243526335          0.3708
H243       H    0.1037473449    0.6900972566    0.1243525048          0.3708
H244       H    0.8962545492    0.6900977025    0.1256470983          0.3708
C225       C    0.0005690037    0.2155781571    0.0951909311          0.3708
C226       C    0.0000000013    0.1811549265    0.1249999320          0.3708
C227       C    0.9994310002    0.2155767722    0.1548088652          0.3708
C228       C    0.9994310015    0.2844218484    0.1548087975          0.3708
C229       C    0.0000000039    0.3188450790    0.1249997966          0.3708
C230       C    0.0005690050    0.2844232333    0.0951908634          0.3708
H231       H    0.0009902123    0.1900970506    0.0731245780          0.3708
H232       H    0.9990098086    0.1900979086    0.1768743251          0.3708
H233       H    0.9990097929    0.3099029549    0.1768751507          0.3708
H234       H    0.0009901965    0.3099020969    0.0731254036          0.3708
loop_
_geom_bond_atom_site_label_1
_geom_bond_atom_site_label_2
_geom_bond_distance
_geom_bond_site_symmetry_2
_ccdc_geom_bond_type
O1          Cu9 1.951       .   S
O1          C11 1.250       .   A
O2          Cu9 1.951       .   S
O2          C12 1.250       .   A
O3          Cu9 1.951       .   S
O3          C13 1.250       .   A
O4          Cu9 1.951       .   S
O4          C14 1.250       .   A
O5         Cu10 1.951       .   S
O5          C14 1.250       .   A
O6         Cu10 1.951       .   S
O6          C13 1.251       .   A
O7         Cu10 1.951       .   S
O7          C12 1.250       .   A
O8         Cu10 1.951       .   S
O8          C11 1.250       .   A
Cu9        Cu10 2.630       .   S
C11        C246 1.540       .   S
C12        C256 1.540       .   S
C13        C236 1.540       .   S
C14        C226 1.540       .   S
O15        Cu23 1.951       .   S
O15         C25 1.250       .   A
O16        Cu23 1.951       .   S
O16         C26 1.250       .   A
O17        Cu23 1.951       .   S
O17         C27 1.250       .   A
O18        Cu23 1.951       .   S
O18         C28 1.250       .   A
O19        Cu24 1.951       .   S
O19         C28 1.250       .   A
O20        Cu24 1.951       .   S
O20         C27 1.251       .   A
O21        Cu24 1.951       .   S
O21         C26 1.250       .   A
O22        Cu24 1.951       .   S
O22         C25 1.250       .   A
Cu23       Cu24 2.630       .   S
C25        C266 1.540       .   S
C26        C276 1.540       .   S
C27        C229 1.540       .   S
C28        C239 1.540   1_565   S
O29        Cu37 1.951       .   S
O29         C39 1.250       .   A
O30        Cu37 1.951       .   S
O30         C40 1.250       .   A
O31        Cu37 1.951       .   S
O31         C41 1.250       .   A
O32        Cu37 1.951       .   S
O32         C42 1.250       .   A
O33        Cu38 1.951       .   S
O33         C42 1.250       .   A
O34        Cu38 1.951       .   S
O34         C41 1.251       .   A
O35        Cu38 1.951       .   S
O35         C40 1.250       .   A
O36        Cu38 1.951       .   S
O36         C39 1.250       .   A
Cu37       Cu38 2.630       .   S
C39        C316 1.540       .   S
C40        C309 1.540       .   S
C41        C286 1.540       .   S
C42        C299 1.540       .   S
O43        Cu51 1.951       .   S
O43         C53 1.250       .   A
O44        Cu51 1.951       .   S
O44         C54 1.250       .   A
O45        Cu51 1.951       .   S
O45         C55 1.250       .   A
O46        Cu51 1.951       .   S
O46         C56 1.250       .   A
O47        Cu52 1.951       .   S
O47         C56 1.250       .   A
O48        Cu52 1.951       .   S
O48         C55 1.251       .   A
O49        Cu52 1.951       .   S
O49         C54 1.250       .   A
O50        Cu52 1.951       .   S
O50         C53 1.250       .   A
Cu51       Cu52 2.630       .   S
C53        C329 1.540       .   S
C54        C336 1.540       .   S
C55        C289 1.540   1_545   S
C56        C296 1.540       .   S
O57        Cu65 1.951       .   S
O57         C67 1.250       .   A
O58        Cu65 1.951       .   S
O58         C68 1.250       .   A
O59        Cu65 1.951       .   S
O59         C69 1.250       .   A
O60        Cu65 1.951       .   S
O60         C70 1.250       .   A
O61        Cu66 1.951       .   S
O61         C70 1.250       .   A
O62        Cu66 1.951       .   S
O62         C69 1.251       .   A
O63        Cu66 1.951       .   S
O63         C68 1.250       .   A
O64        Cu66 1.951       .   S
O64         C67 1.250       .   A
Cu65       Cu66 2.630       .   S
C67        C249 1.540   1_566   S
C68        C366 1.540       .   S
C69        C346 1.540       .   S
C70        C359 1.540       .   S
O71        Cu79 1.951       .   S
O71         C81 1.250       .   A
O72        Cu79 1.951       .   S
O72         C82 1.250       .   A
O73        Cu79 1.951       .   S
O73         C83 1.250       .   A
O74        Cu79 1.951       .   S
O74         C84 1.250       .   A
O75        Cu80 1.951       .   S
O75         C84 1.250       .   A
O76        Cu80 1.951       .   S
O76         C83 1.251       .   A
O77        Cu80 1.951       .   S
O77         C82 1.250       .   A
O78        Cu80 1.951       .   S
O78         C81 1.250       .   A
Cu79       Cu80 2.630       .   S
C81        C269 1.540   1_556   S
C82        C376 1.540       .   S
C83        C356 1.540       .   S
C84        C349 1.540   1_545   S
O85        Cu93 1.951       .   S
O85         C95 1.250       .   A
O86        Cu93 1.951       .   S
O86         C96 1.250       .   A
O87        Cu93 1.951       .   S
O87         C97 1.250       .   A
O88        Cu93 1.951       .   S
O88         C98 1.250       .   A
O89        Cu94 1.951       .   S
O89         C98 1.250       .   A
O90        Cu94 1.951       .   S
O90         C97 1.251       .   A
O91        Cu94 1.951       .   S
O91         C96 1.250       .   A
O92        Cu94 1.951       .   S
O92         C95 1.250       .   A
Cu93       Cu94 2.630       .   S
C95        C306 1.540   1_556   S
C96        C406 1.540       .   S
C97        C396 1.540       .   S
C98        C386 1.540       .   S
O99       Cu107 1.951       .   S
O99        C109 1.250       .   A
O100      Cu107 1.951       .   S
O100       C110 1.250       .   A
O101      Cu107 1.951       .   S
O101       C111 1.250       .   A
O102      Cu107 1.951       .   S
O102       C112 1.250       .   A
O103      Cu108 1.951       .   S
O103       C112 1.250       .   A
O104      Cu108 1.951       .   S
O104       C111 1.251       .   A
O105      Cu108 1.951       .   S
O105       C110 1.250       .   A
O106      Cu108 1.951       .   S
O106       C109 1.250       .   A
Cu107     Cu108 2.630       .   S
C109       C326 1.540   1_556   S
C110       C416 1.540       .   S
C111       C399 1.540       .   S
C112       C389 1.540   1_545   S
O113      Cu121 1.951       .   S
O113       C123 1.250       .   A
O114      Cu121 1.951       .   S
O114       C124 1.250       .   A
O115      Cu121 1.951       .   S
O115       C125 1.250       .   A
O116      Cu121 1.951       .   S
O116       C126 1.250       .   A
O117      Cu122 1.951       .   S
O117       C126 1.250       .   A
O118      Cu122 1.951       .   S
O118       C125 1.251       .   A
O119      Cu122 1.951       .   S
O119       C124 1.250       .   A
O120      Cu122 1.951       .   S
O120       C123 1.250       .   A
Cu121     Cu122 2.630       .   S
C123       C426 1.540       .   S
C124       C436 1.540       .   S
C125       C446 1.540       .   S
C126       C259 1.540       .   S
O127      Cu135 1.951       .   S
O127       C137 1.250       .   A
O128      Cu135 1.951       .   S
O128       C138 1.250       .   A
O129      Cu135 1.951       .   S
O129       C139 1.250       .   A
O130      Cu135 1.951       .   S
O130       C140 1.250       .   A
O131      Cu136 1.951       .   S
O131       C140 1.250       .   A
O132      Cu136 1.951       .   S
O132       C139 1.251       .   A
O133      Cu136 1.951       .   S
O133       C138 1.250       .   A
O134      Cu136 1.951       .   S
O134       C137 1.250       .   A
Cu135     Cu136 2.630       .   S
C137       C466 1.540       .   S
C138       C456 1.540       .   S
C139       C279 1.540       .   S
C140       C476 1.540       .   S
O141      Cu149 1.951       .   S
O141       C151 1.250       .   A
O142      Cu149 1.951       .   S
O142       C152 1.250       .   A
O143      Cu149 1.951       .   S
O143       C153 1.250       .   A
O144      Cu149 1.951       .   S
O144       C154 1.250       .   A
O145      Cu150 1.951       .   S
O145       C154 1.250       .   A
O146      Cu150 1.951       .   S
O146       C153 1.251       .   A
O147      Cu150 1.951       .   S
O147       C152 1.250       .   A
O148      Cu150 1.951       .   S
O148       C151 1.250       .   A
Cu149     Cu150 2.630       .   S
C151       C319 1.540       .   S
C152       C486 1.540       .   S
C153       C429 1.540   1_565   S
C154       C439 1.540   1_665   S
O155      Cu163 1.951       .   S
O155       C165 1.250       .   A
O156      Cu163 1.951       .   S
O156       C166 1.250       .   A
O157      Cu163 1.951       .   S
O157       C167 1.250       .   A
O158      Cu163 1.951       .   S
O158       C168 1.250       .   A
O159      Cu164 1.951       .   S
O159       C168 1.250       .   A
O160      Cu164 1.951       .   S
O160       C167 1.251       .   A
O161      Cu164 1.951       .   S
O161       C166 1.250       .   A
O162      Cu164 1.951       .   S
O162       C165 1.250       .   A
Cu163     Cu164 2.630       .   S
C165       C459 1.540       .   S
C166       C469 1.540   1_655   S
C167       C339 1.540       .   S
C168       C496 1.540       .   S
O169      Cu177 1.951       .   S
O169       C179 1.250       .   A
O170      Cu177 1.951       .   S
O170       C180 1.250       .   A
O171      Cu177 1.951       .   S
O171       C181 1.250       .   A
O172      Cu177 1.951       .   S
O172       C182 1.250       .   A
O173      Cu178 1.951       .   S
O173       C182 1.250       .   A
O174      Cu178 1.951       .   S
O174       C181 1.251       .   A
O175      Cu178 1.951       .   S
O175       C180 1.250       .   A
O176      Cu178 1.951       .   S
O176       C179 1.250       .   A
Cu177     Cu178 2.630       .   S
C179       C506 1.540       .   S
C180       C516 1.540       .   S
C181       C369 1.540       .   S
C182       C449 1.540   1_565   S
O183      Cu191 1.951       .   S
O183       C193 1.250       .   A
O184      Cu191 1.951       .   S
O184       C194 1.250       .   A
O185      Cu191 1.951       .   S
O185       C195 1.250       .   A
O186      Cu191 1.951       .   S
O186       C196 1.250       .   A
O187      Cu192 1.951       .   S
O187       C196 1.250       .   A
O188      Cu192 1.951       .   S
O188       C195 1.251       .   A
O189      Cu192 1.951       .   S
O189       C194 1.250       .   A
O190      Cu192 1.951       .   S
O190       C193 1.250       .   A
Cu191     Cu192 2.630       .   S
C193       C526 1.540       .   S
C194       C536 1.540       .   S
C195       C379 1.540       .   S
C196       C479 1.540       .   S
O197      Cu205 1.951       .   S
O197       C207 1.250       .   A
O198      Cu205 1.951       .   S
O198       C208 1.250       .   A
O199      Cu205 1.951       .   S
O199       C209 1.250       .   A
O200      Cu205 1.951       .   S
O200       C210 1.250       .   A
O201      Cu206 1.951       .   S
O201       C210 1.250       .   A
O202      Cu206 1.951       .   S
O202       C209 1.251       .   A
O203      Cu206 1.951       .   S
O203       C208 1.250       .   A
O204      Cu206 1.951       .   S
O204       C207 1.250       .   A
Cu205     Cu206 2.630       .   S
C207       C509 1.540       .   S
C208       C519 1.540   1_655   S
C209       C409 1.540       .   S
C210       C489 1.540       .   S
O211      Cu219 1.951       .   S
O211       C221 1.250       .   A
O212      Cu219 1.951       .   S
O212       C222 1.250       .   A
O213      Cu219 1.951       .   S
O213       C223 1.250       .   A
O214      Cu219 1.951       .   S
O214       C224 1.250       .   A
O215      Cu220 1.951       .   S
O215       C224 1.250       .   A
O216      Cu220 1.951       .   S
O216       C223 1.251       .   A
O217      Cu220 1.951       .   S
O217       C222 1.250       .   A
O218      Cu220 1.951       .   S
O218       C221 1.250       .   A
Cu219     Cu220 2.630       .   S
C221       C529 1.540       .   S
C222       C539 1.540   1_655   S
C223       C419 1.540       .   S
C224       C499 1.540       .   S
C535       C536 1.540       .   A
C535       C540 1.540       .   A
C535       H541 1.140       .   S
C536       C537 1.540       .   A
C537       C538 1.540       .   A
C537       H542 1.140       .   S
C538       C539 1.540       .   A
C538       H543 1.140       .   S
C539       C540 1.540       .   A
C540       H544 1.140       .   S
C525       C526 1.540       .   A
C525       C530 1.540       .   A
C525       H531 1.140       .   S
C526       C527 1.540       .   A
C527       C528 1.540       .   A
C527       H532 1.140       .   S
C528       C529 1.540       .   A
C528       H533 1.140       .   S
C529       C530 1.540       .   A
C530       H534 1.140       .   S
C515       C516 1.540       .   A
C515       C520 1.540       .   A
C515       H521 1.140       .   S
C516       C517 1.540       .   A
C517       C518 1.540       .   A
C517       H522 1.140       .   S
C518       C519 1.540       .   A
C518       H523 1.140       .   S
C519       C520 1.540       .   A
C520       H524 1.140       .   S
C505       C506 1.540       .   A
C505       C510 1.540       .   A
C505       H511 1.140       .   S
C506       C507 1.540       .   A
C507       C508 1.540       .   A
C507       H512 1.140       .   S
C508       C509 1.540       .   A
C508       H513 1.140       .   S
C509       C510 1.540       .   A
C510       H514 1.140       .   S
C495       C496 1.540       .   A
C495       C500 1.540       .   A
C495       H501 1.140       .   S
C496       C497 1.540       .   A
C497       C498 1.540       .   A
C497       H502 1.140       .   S
C498       C499 1.540       .   A
C498       H503 1.140       .   S
C499       C500 1.540       .   A
C500       H504 1.140       .   S
C485       C486 1.540       .   A
C485       C490 1.540       .   A
C485       H491 1.140       .   S
C486       C487 1.540       .   A
C487       C488 1.540       .   A
C487       H492 1.140       .   S
C488       C489 1.540       .   A
C488       H493 1.140       .   S
C489       C490 1.540       .   A
C490       H494 1.140       .   S
C475       C476 1.540       .   A
C475       C480 1.540       .   A
C475       H481 1.140       .   S
C476       C477 1.540       .   A
C477       C478 1.540       .   A
C477       H482 1.140       .   S
C478       C479 1.540       .   A
C478       H483 1.140       .   S
C479       C480 1.540       .   A
C480       H484 1.140       .   S
C465       C466 1.540       .   A
C465       C470 1.540       .   A
C465       H471 1.140       .   S
C466       C467 1.540       .   A
C467       C468 1.540       .   A
C467       H472 1.140       .   S
C468       C469 1.540       .   A
C468       H473 1.140       .   S
C469       C470 1.540       .   A
C470       H474 1.140       .   S
C455       C456 1.540       .   A
C455       C460 1.540       .   A
C455       H461 1.140       .   S
C456       C457 1.540       .   A
C457       C458 1.540       .   A
C457       H462 1.140       .   S
C458       C459 1.540       .   A
C458       H463 1.140       .   S
C459       C460 1.540       .   A
C460       H464 1.140       .   S
C445       C446 1.540       .   A
C445       C450 1.540       .   A
C445       H451 1.140       .   S
C446       C447 1.540       .   A
C447       C448 1.540       .   A
C447       H452 1.140       .   S
C448       C449 1.540       .   A
C448       H453 1.140       .   S
C449       C450 1.540       .   A
C450       H454 1.140       .   S
C435       C436 1.540       .   A
C435       C440 1.540       .   A
C435       H441 1.140       .   S
C436       C437 1.540       .   A
C437       C438 1.540       .   A
C437       H442 1.140       .   S
C438       C439 1.540       .   A
C438       H443 1.140       .   S
C439       C440 1.540       .   A
C440       H444 1.140       .   S
C425       C426 1.540       .   A
C425       C430 1.540       .   A
C425       H431 1.140       .   S
C426       C427 1.540       .   A
C427       C428 1.540       .   A
C427       H432 1.140       .   S
C428       C429 1.540       .   A
C428       H433 1.140       .   S
C429       C430 1.540       .   A
C430       H434 1.140       .   S
C415       C416 1.540       .   A
C415       C420 1.540       .   A
C415       H421 1.140       .   S
C416       C417 1.540       .   A
C417       C418 1.540       .   A
C417       H422 1.140       .   S
C418       C419 1.540       .   A
C418       H423 1.140       .   S
C419       C420 1.540       .   A
C420       H424 1.140       .   S
C405       C406 1.540       .   A
C405       C410 1.540       .   A
C405       H411 1.140       .   S
C406       C407 1.540       .   A
C407       C408 1.540       .   A
C407       H412 1.140       .   S
C408       C409 1.540       .   A
C408       H413 1.140       .   S
C409       C410 1.540       .   A
C410       H414 1.140       .   S
C395       C396 1.540       .   A
C395       C400 1.540       .   A
C395       H401 1.140       .   S
C396       C397 1.540       .   A
C397       C398 1.540       .   A
C397       H402 1.140       .   S
C398       C399 1.540       .   A
C398       H403 1.140       .   S
C399       C400 1.540       .   A
C400       H404 1.140       .   S
C385       C386 1.540       .   A
C385       C390 1.540       .   A
C385       H391 1.140       .   S
C386       C387 1.540       .   A
C387       C388 1.540       .   A
C387       H392 1.140       .   S
C388       C389 1.540       .   A
C388       H393 1.140       .   S
C389       C390 1.540       .   A
C390       H394 1.140       .   S
C375       C376 1.540       .   A
C375       C380 1.540       .   A
C375       H381 1.140       .   S
C376       C377 1.540       .   A
C377       C378 1.540       .   A
C377       H382 1.140       .   S
C378       C379 1.540       .   A
C378       H383 1.140       .   S
C379       C380 1.540       .   A
C380       H384 1.140       .   S
C365       C366 1.540       .   A
C365       C370 1.540       .   A
C365       H371 1.140       .   S
C366       C367 1.540       .   A
C367       C368 1.540       .   A
C367       H372 1.140       .   S
C368       C369 1.540       .   A
C368       H373 1.140       .   S
C369       C370 1.540       .   A
C370       H374 1.140       .   S
C355       C356 1.540       .   A
C355       C360 1.540       .   A
C355       H361 1.140       .   S
C356       C357 1.540       .   A
C357       C358 1.540       .   A
C357       H362 1.140       .   S
C358       C359 1.540       .   A
C358       H363 1.140       .   S
C359       C360 1.540       .   A
C360       H364 1.140       .   S
C345       C346 1.540       .   A
C345       C350 1.540       .   A
C345       H351 1.140       .   S
C346       C347 1.540       .   A
C347       C348 1.540       .   A
C347       H352 1.140       .   S
C348       C349 1.540       .   A
C348       H353 1.140       .   S
C349       C350 1.540       .   A
C350       H354 1.140       .   S
C335       C336 1.540       .   A
C335       C340 1.540       .   A
C335       H341 1.140       .   S
C336       C337 1.540       .   A
C337       C338 1.540       .   A
C337       H342 1.140       .   S
C338       C339 1.540       .   A
C338       H343 1.140       .   S
C339       C340 1.540       .   A
C340       H344 1.140       .   S
C325       C326 1.540       .   A
C325       C330 1.540       .   A
C325       H331 1.140       .   S
C326       C327 1.540       .   A
C327       C328 1.540       .   A
C327       H332 1.140       .   S
C328       C329 1.540       .   A
C328       H333 1.140       .   S
C329       C330 1.540       .   A
C330       H334 1.140       .   S
C315       C316 1.540       .   A
C315       C320 1.540       .   A
C315       H321 1.140       .   S
C316       C317 1.540       .   A
C317       C318 1.540       .   A
C317       H322 1.140       .   S
C318       C319 1.540       .   A
C318       H323 1.140       .   S
C319       C320 1.540       .   A
C320       H324 1.140       .   S
C305       C306 1.540       .   A
C305       C310 1.540       .   A
C305       H311 1.140       .   S
C306       C307 1.540       .   A
C307       C308 1.540       .   A
C307       H312 1.140       .   S
C308       C309 1.540       .   A
C308       H313 1.140       .   S
C309       C310 1.540       .   A
C310       H314 1.140       .   S
C295       C296 1.540       .   A
C295       C300 1.540       .   A
C295       H301 1.140       .   S
C296       C297 1.540       .   A
C297       C298 1.540       .   A
C297       H302 1.140       .   S
C298       C299 1.540       .   A
C298       H303 1.140       .   S
C299       C300 1.540       .   A
C300       H304 1.140       .   S
C285       C286 1.540       .   A
C285       C290 1.540       .   A
C285       H291 1.140       .   S
C286       C287 1.540       .   A
C287       C288 1.540       .   A
C287       H292 1.140       .   S
C288       C289 1.540       .   A
C288       H293 1.140       .   S
C289       C290 1.540       .   A
C290       H294 1.140       .   S
C275       C276 1.540       .   A
C275       C280 1.540       .   A
C275       H281 1.140       .   S
C276       C277 1.540       .   A
C277       C278 1.540       .   A
C277       H282 1.140       .   S
C278       C279 1.540       .   A
C278       H283 1.140       .   S
C279       C280 1.540       .   A
C280       H284 1.140       .   S
C265       C266 1.540       .   A
C265       C270 1.540       .   A
C265       H271 1.140       .   S
C266       C267 1.540       .   A
C267       C268 1.540       .   A
C267       H272 1.140       .   S
C268       C269 1.540       .   A
C268       H273 1.140       .   S
C269       C270 1.540       .   A
C270       H274 1.140       .   S
C255       C256 1.540       .   A
C255       C260 1.540       .   A
C255       H261 1.140       .   S
C256       C257 1.540       .   A
C257       C258 1.540       .   A
C257       H262 1.140       .   S
C258       C259 1.540       .   A
C258       H263 1.140       .   S
C259       C260 1.540       .   A
C260       H264 1.140       .   S
C245       C246 1.540       .   A
C245       C250 1.540       .   A
C245       H251 1.140       .   S
C246       C247 1.540       .   A
C247       C248 1.540       .   A
C247       H252 1.140       .   S
C248       C249 1.540       .   A
C248       H253 1.140       .   S
C249       C250 1.540       .   A
C250       H254 1.140       .   S
C235       C236 1.540       .   A
C235       C240 1.540       .   A
C235       H241 1.140       .   S
C236       C237 1.540       .   A
C237       C238 1.540       .   A
C237       H242 1.140       .   S
C238       C239 1.540       .   A
C238       H243 1.140       .   S
C239       C240 1.540       .   A
C240       H244 1.140       .   S
C225       C226 1.540       .   A
C225       C230 1.540       .   A
C225       H231 1.140       .   S
C226       C227 1.540       .   A
C227       C228 1.540       .   A
C227       H232 1.140       .   S
C228       C229 1.540       .   A
C228       H233 1.140       .   S
C229       C230 1.540       .   A
C230       H234 1.140       .   S
