data_crr_v1-4c_Cu_1_Ch_1-1B_4H_Ch
_audit_creation_date              2024-08-05
_audit_creation_method            'tobacco_3.0'
_symmetry_space_group_name_H-M    'P1'
_symmetry_Int_Tables_number       1
_symmetry_cell_setting            triclinic
loop_
_symmetry_equiv_pos_as_xyz
  x,y,z
_cell_length_a                    28.835897225860656
_cell_length_b                    28.83579521861901
_cell_length_c                    28.836001298372267
_cell_angle_alpha                 90.00925647512197
_cell_angle_beta                  90.00303659037003
_cell_angle_gamma                 90.00370533688186
loop_
_atom_site_label
_atom_site_type_symbol
_atom_site_fract_x
_atom_site_fract_y
_atom_site_fract_z
_atom_site_charge
O1         O    0.0657960322    0.4197134995    0.3524343059         -1.3557
O2         O    0.1219380789    0.2981065422    0.3653878923 -1.3702999999999999
O3         O    0.0657997360    0.3524295293    0.4197174003         -1.2517
O4         O    0.1219384607    0.3653865478    0.2981008359         -1.3358
O5         O    0.1842043495    0.3975665062    0.3302786377         -1.3313
O6         O    0.1280655240    0.3846143372    0.4518902454         -1.2439
O7         O    0.1842039678    0.3302865005    0.3975656941         -1.3689
O8         O    0.1280619211    0.4518934578    0.3846121077         -1.3567
Cu9       Cu    0.0881862054    0.3559700386    0.3559755689          1.0456
Cu10      Cu    0.1618137946    0.3940299614    0.3940244311          1.0433
C11        C    0.0886514744    0.4537343998    0.3666144179          0.3063
C12        C    0.1613485256    0.2962656002    0.3833855821          0.2977
C13        C    0.0886521980    0.3666143763    0.4537312841          0.2191
C14        C    0.1613478020    0.3833856237    0.2962687159          0.2819
O15        O    0.3824390404    0.1049000606    0.2981127349         -1.3557
O16        O    0.3694786193    0.0487660895    0.4197179573         -1.3655
O17        O    0.3151525714    0.1049014407    0.3654003963         -1.2517
O18        O    0.4367690433    0.0487606110    0.3524342535         -1.3358
O19        O    0.4689439345    0.1110293759    0.3846151362         -1.3313
O20        O    0.3473323145    0.1671701027    0.3975763241         -1.2439
O21        O    0.4016535105    0.1110348543    0.4518988401         -1.3689
O22        O    0.4146139316    0.1671688254    0.3302936176         -1.3567
Cu23      Cu    0.3730217931    0.0711493963    0.3559820180          1.0456
Cu24      Cu    0.4110707577    0.1447855186    0.3940295569          1.0433
C25        C    0.4004371306    0.1443123957    0.2962733591          0.3063
C26        C    0.3836554202    0.0716225192    0.4537382159          0.2977
C27        C    0.3133124474    0.1443115826    0.3833947138          0.2191
C28        C    0.4707801035    0.0716233323    0.3666168611          0.2819
O29        O    0.4146147120    0.3302910368    0.1671749151         -1.3557
O30        O    0.4016548405    0.4518951448    0.1110374014         -1.3655
O31        O    0.3473262139    0.3975763638    0.1671702990         -1.2517
O32        O    0.4689473005    0.3846137821    0.1110379325         -1.3358
O33        O    0.4367752777    0.3524310233    0.0487691627         -1.3313
O34        O    0.3151591481    0.3653887553    0.1049016301         -1.2439
O35        O    0.3694828177    0.4197123860    0.0487686316         -1.3689
O36        O    0.3824426891    0.2981082780    0.1049061453         -1.3567
Cu37      Cu    0.4110697789    0.3940333285    0.1447872715          1.0456
Cu38      Cu    0.3730277507    0.3559700943    0.0711562753          1.0433
C39        C    0.4004384162    0.2962691564    0.1443173641          0.3063
C40        C    0.3836591135    0.4537342665    0.0716261827          0.2977
C41        C    0.3133145530    0.3833909369    0.1443154592          0.2191
C42        C    0.4707829766    0.3666124859    0.0716280876          0.2819
O43        O    0.0483013676    0.3846188981    0.6903986017         -1.3557
O44        O    0.9921674495    0.3975847171    0.8120112875         -1.3655
O45        O    0.0483030560    0.4519123838    0.7576939227         -1.2517
O46        O    0.9921616628    0.3302872763    0.7447199239         -1.3358
O47        O    0.0544299375    0.2981231632    0.7768905036         -1.3313
O48        O    0.1105712278    0.4197434183    0.7898595470         -1.2439
O49        O    0.0544357242    0.3654206040    0.8441818672         -1.3689
O50        O    0.1105696423    0.3524547850    0.7225691814         -1.3567
Cu51      Cu    0.0145507745    0.3940378609    0.7482725570          1.0456
Cu52      Cu    0.0881863173    0.3560016412    0.7863079119          1.0433
C53        C    0.0877134498    0.3666254012    0.6885529739          0.3063
C54        C    0.0150236419    0.3834141009    0.8460274950          0.2977
C55        C    0.0877130359    0.4537591691    0.7756842468          0.2191
C56        C    0.0150240558    0.2962803330    0.7588962220          0.2819
O57        O    0.8290557764    0.1671644122    0.7447375413         -1.3557
O58        O    0.7074451701    0.1110153118    0.7576924470         -1.3655
O59        O    0.7617704804    0.1671601196    0.8120263748         -1.2517
O60        O    0.7747265014    0.1110155184    0.6903996512         -1.3358
O61        O    0.8069014067    0.0487531195    0.7225646668         -1.3313
O62        O    0.7939502353    0.1048978216    0.8441864333         -1.2439
O63        O    0.7396200754    0.0487529130    0.7898574626         -1.3689
O64        O    0.8612306817    0.1049020133    0.7769025569         -1.3567
Cu65      Cu    0.7653109521    0.1447703935    0.7482806309          1.0456
Cu66      Cu    0.8033648997    0.0711469316    0.7863143730          1.0433
C67        C    0.8630746882    0.1443117551    0.7589110656          0.3063
C68        C    0.7056011636    0.0716055700    0.7756839383          0.2977
C69        C    0.7759529482    0.1443102691    0.8460353635          0.2191
C70        C    0.7927229036    0.0716070561    0.6885596404          0.2819
O71        O    0.7396232126    0.3524531396    0.0935476652         -1.3557
O72        O    0.8612306158    0.3654157270    0.0374047878         -1.3655
O73        O    0.8069106284    0.4197482516    0.0935434992         -1.2517
O74        O    0.7939471643    0.2981166529    0.0374048683         -1.3358
O75        O    0.7617692674    0.3302759201    0.9751395413         -1.3313
O76        O    0.7747278816    0.4519025612    0.0312782731         -1.2439
O77        O    0.8290527188    0.3975749942    0.9751394608         -1.3689
O78        O    0.7074453156    0.3846124069    0.0312823383         -1.3567
Cu79      Cu    0.8033667083    0.3560005948    0.0711570254          1.0456
Cu80      Cu    0.7653092231    0.3940275390    0.9975301006          1.0433
C81        C    0.7056032772    0.3666226570    0.0706926265          0.3063
C82        C    0.8630726541    0.3834054768    0.9979944995          0.2977
C83        C    0.7927277621    0.4537550845    0.0706913043          0.2191
C84        C    0.7759481693    0.2962730493    0.9979958217          0.2819
O85        O    0.3694911218    0.0935340813    0.7225885756         -1.3557
O86        O    0.3824567891    0.0373973676    0.8441925725         -1.3655
O87        O    0.4367862124    0.0935306506    0.7898747466         -1.2517
O88        O    0.3151577366    0.0373967132    0.7769103658         -1.3358
O89        O    0.3473198183    0.9751274890    0.7447290277         -1.3313
O90        O    0.4689433365    0.0312615272    0.7576885587         -1.2439
O91        O    0.4146188708    0.9751281434    0.8120112344         -1.3689
O92        O    0.4016532035    0.0312648571    0.6904072376         -1.3567
Cu93      Cu    0.3730398602    0.0711468792    0.7863306821          1.0456
Cu94      Cu    0.4110701324    0.9975153455    0.7482691280          1.0433
C95        C    0.3836615923    0.0706761851    0.6885674220          0.3063
C96        C    0.4004484003    0.9979860396    0.8460323881          0.2977
C97        C    0.4707939920    0.0706758151    0.7756902952          0.2191
C98        C    0.3133160006    0.9979864096    0.7589095149          0.2819
O99        O    0.1280466346    0.7576906611    0.6904159025         -1.3557
O100       O    0.1841932336    0.7447408523    0.8120262045         -1.3655
O101       O    0.1280455900    0.6904093270    0.7577016331         -1.2517
O102       O    0.1841983773    0.8120261418    0.7447444320         -1.3358
O103       O    0.1219372317    0.8442026659    0.7769201924         -1.3313
O104       O    0.0657845472    0.7225907027    0.7898724387         -1.2439
O105       O    0.1219320880    0.7769173764    0.8442019649         -1.3689
O106       O    0.0657854890    0.7898671852    0.7225916629         -1.3567
Cu107     Cu    0.1618029178    0.7482785713    0.7482881930          1.0456
Cu108     Cu    0.0881758047    0.7863294662    0.7863296744          1.0433
C109       C    0.0886362472    0.7756880031    0.6885732165          0.3063
C110       C    0.1613424754    0.7589200345    0.8460446510          0.2977
C111       C    0.0886374942    0.6885699683    0.7756920714          0.2191
C112       C    0.1613412284    0.8460380692    0.7589257961          0.2819
O113       O    0.4016579909    0.6904022568    0.0312661330         -1.3557
O114       O    0.4146219385    0.8120084511    0.9751318214         -1.3655
O115       O    0.4689503094    0.7576924673    0.0312666325         -1.2517
O116       O    0.3473256648    0.7447221980    0.9751272236         -1.3358
O117       O    0.3151613855    0.7769026497    0.0373956257         -1.3313
O118       O    0.4367811778    0.7898679639    0.0935349318         -1.2439
O119       O    0.3824576593    0.8441889028    0.0374002235         -1.3689
O120       O    0.3694937116    0.7225827085    0.0935345350         -1.3567
Cu121     Cu    0.4110760331    0.7482720652    0.9975153315          1.0456
Cu122     Cu    0.3730396170    0.7863190944    0.0711510249          1.0433
C123       C    0.3836646868    0.6885625222    0.0706783369          0.3063
C124       C    0.4004509634    0.8460286374    0.9979880195          0.2977
C125       C    0.4707969435    0.7756871776    0.0706763836          0.2191
C126       C    0.3133187066    0.7589039820    0.9979899728          0.2819
O127       O    0.1105729858    0.7225739714    0.3524587708         -1.3557
O128       O    0.0544356418    0.8441850187    0.3654276952         -1.3655
O129       O    0.1105678656    0.7898658276    0.4197557202         -1.2517
O130       O    0.0544366769    0.7768971268    0.2981267839         -1.3358
O131       O    0.9921671646    0.7447237896    0.3302871973         -1.3313
O132       O    0.0482984542    0.7576876403    0.4519111759         -1.2439
O133       O    0.9921661295    0.8120116816    0.3975881086         -1.3689
O134       O    0.0483034735    0.6904006342    0.3846191842         -1.3567
Cu135     Cu    0.0881854948    0.7863188732    0.3560092901          1.0456
Cu136     Cu    0.0145536205    0.7482667798    0.3940375893          1.0433
C137       C    0.0877150385    0.6885557787    0.3666279269          0.3063
C138       C    0.0150240768    0.8460298742    0.3834189525          0.2977
C139       C    0.0877124810    0.7756860128    0.4537627334          0.2191
C140       C    0.0150266343    0.7588996402    0.2962841460          0.2819
O141       O    0.7074433107    0.0312729779    0.3846212505         -1.3557
O142       O    0.8290520940    0.9751341862    0.3975826665         -1.3655
O143       O    0.7747322916    0.0312746867    0.4519135325         -1.2517
O144       O    0.7617670707    0.9751283787    0.3302864291         -1.3358
O145       O    0.7939443209    0.0373940942    0.2981255333         -1.3313
O146       O    0.8069045868    0.0935402993    0.4197477843         -1.2439
O147       O    0.8612293442    0.0373999017    0.3654217707         -1.3689
O148       O    0.7396205609    0.0935386934    0.3524603547         -1.3567
Cu149     Cu    0.7653147059    0.9975201815    0.3940377181          1.0456
Cu150     Cu    0.8033579490    0.0711526981    0.3560053031          1.0433
C151       C    0.7056015935    0.0706844991    0.3666300115          0.3063
C152       C    0.8630710614    0.9979883805    0.3834130097          0.2977
C153       C    0.7927246570    0.0706841118    0.4537622207          0.2191
C154       C    0.7759479979    0.9979887678    0.2962808005          0.2819
O155       O    0.8612377905    0.7769079941    0.1048977372         -1.3557
O156       O    0.7396266940    0.7898605576    0.0487512844         -1.3655
O157       O    0.7939498388    0.8441938682    0.1048987390         -1.2517
O158       O    0.8069106878    0.7225707279    0.0487461835         -1.3358
O159       O    0.7747357307    0.6904024195    0.1110070974         -1.3313
O160       O    0.7617798366    0.8120207079    0.1671595501         -1.2439
O161       O    0.7074517369    0.7576922492    0.1110121983         -1.3689
O162       O    0.8290628334    0.7447396856    0.1671586511         -1.3567
Cu163     Cu    0.8033650294    0.7863207116    0.0711415482          1.0456
Cu164     Cu    0.7653244980    0.7482795316    0.1447683873          1.0433
C165       C    0.8630809953    0.7589143538    0.1443079872          0.3063
C166       C    0.7056085321    0.7756858894    0.0716019484          0.2977
C167       C    0.7759592644    0.8460382667    0.1443066848          0.2191
C168       C    0.7927302630    0.6885619766    0.0716032507          0.2819
C399       C    0.8217373242    0.9455293087    0.2345536274          0.3708
C400       C    0.7759508311    0.9597775766    0.2580636709          0.3708
C401       C    0.7301671380    0.9362617852    0.2438037862          0.3708
C402       C    0.7301699381    0.8984977258    0.2060338579          0.3708
C403       C    0.7759564312    0.8842494578    0.1825238143          0.3708
C404       C    0.8217401243    0.9077652493    0.1967836991          0.3708
H405       H    0.8556291490    0.9629371024    0.2451096460          0.3708
H406       H    0.6962746896    0.9468075583    0.2612053856          0.3708
H407       H    0.6962781133    0.8810899321    0.1954778393          0.3708
H408       H    0.8556325727    0.8972194762    0.1793820997          0.3708
C389       C    0.9528804697    0.7589362967    0.1687122360          0.3708
C390       C    0.9012927306    0.7589106536    0.1825273976          0.3708
C391       C    0.8874660757    0.7588813540    0.2341112282          0.3708
C392       C    0.9252271600    0.7588776974    0.2718798972          0.3708
C393       C    0.9768148991    0.7589033404    0.2580647355          0.3708
C394       C    0.9906415539    0.7589326401    0.2064809049          0.3708
H395       H    0.9631157856    0.7589579860    0.1305268030          0.3708
H396       H    0.8492805770    0.7588623721    0.2443387942          0.3708
H397       H    0.9149918441    0.7588560080    0.3100653302          0.3708
H398       H    0.0288270526    0.7589516219    0.1962533389          0.3708
C379       C    0.9579266457    0.9031194710    0.3371660502          0.3708
C380       C    0.9768096772    0.8842456547    0.3834174579          0.3708
C381       C    0.9579306006    0.9031353111    0.4296673888          0.3708
C382       C    0.9201684925    0.9408987837    0.4296659120          0.3708
C383       C    0.9012854610    0.9597726000    0.3834145042          0.3708
C384       C    0.9201645376    0.9408829436    0.3371645733          0.3708
H385       H    0.9719020660    0.8891362189    0.3029290884          0.3708
H386       H    0.9719071560    0.8891655771    0.4639039801          0.3708
H387       H    0.9061930722    0.9548820358    0.4639028738          0.3708
H388       H    0.9061879823    0.9548526776    0.3029279820          0.3708
C369       C    0.6150849058    0.7756714717    0.0249941100          0.3708
C370       C    0.6416086168    0.7756862405    0.0713496777          0.3708
C371       C    0.6147264488    0.7757013023    0.1174947337          0.3708
C372       C    0.5613205698    0.7757015953    0.1172842220          0.3708
C373       C    0.5347968588    0.7756868265    0.0709286542          0.3708
C374       C    0.5616790268    0.7756717647    0.0247835982          0.3708
H375       H    0.6349846925    0.7756603221    0.9908347828          0.3708
H376       H    0.6343583546    0.7757122346    0.1518084206          0.3708
H377       H    0.5414207830    0.7757127450    0.1514435492          0.3708
H378       H    0.5420471209    0.7756608324    0.9904699113          0.3708
C359       C    0.0420409243    0.7746312130    0.5980494846          0.3708
C360       C    0.0883844670    0.7756874606    0.6245736629          0.3708
C361       C    0.1345179068    0.7767432555    0.5976921532          0.3708
C362       C    0.1343078039    0.7767428028    0.5442864653          0.3708
C363       C    0.0879642611    0.7756865552    0.5177622870          0.3708
C364       C    0.0418308213    0.7746307604    0.5446437967          0.3708
H365       H    0.0078901961    0.7738496506    0.6179487840          0.3708
H366       H    0.1688226924    0.7775251196    0.6173244050          0.3708
H367       H    0.1684585321    0.7775243652    0.5243871659          0.3708
H368       H    0.0075260357    0.7738488963    0.5250115449          0.3708
C349       C    0.2184523579    0.7126630057    0.9031162034          0.3708
C350       C    0.1995618737    0.7589159975    0.8842562761          0.3708
C351       C    0.2184401068    0.8051650000    0.9031573846          0.3708
C352       C    0.2562088242    0.8051610107    0.9409184204          0.3708
C353       C    0.2750993083    0.7589080189    0.9597783477          0.3708
C354       C    0.2562210752    0.7126590164    0.9408772393          0.3708
H355       H    0.2044775619    0.6784267312    0.8891244738          0.3708
H356       H    0.2044580350    0.8394027638    0.8891979315          0.3708
H357       H    0.2701836201    0.8393972853    0.9549101500          0.3708
H358       H    0.2702031470    0.6784212526    0.9548366923          0.3708
C339       C    0.4331542159    0.9640167534    0.9262586179          0.3708
C340       C    0.4004490449    0.9597684517    0.8842495306          0.3708
C341       C    0.3677445108    0.9177590368    0.8800011165          0.3708
C342       C    0.3677451477    0.8799979236    0.9177617897          0.3708
C343       C    0.4004503187    0.8842462253    0.9597708770          0.3708
C344       C    0.4331548528    0.9262556402    0.9640192911          0.3708
H345       H    0.4573640658    0.9951146320    0.9294035478          0.3708
H346       H    0.3435352244    0.9146131295    0.8489060049          0.3708
H347       H    0.3435352978    0.8489000450    0.9146168598          0.3708
H348       H    0.4573641392    0.9294015475    0.9951144027          0.3708
C329       C    0.2511451197    0.8704254699    0.7589225950          0.3708
C330       C    0.1995600981    0.8842502918    0.7589217017          0.3708
C331       C    0.1857435930    0.9358370614    0.7589167622          0.3708
C332       C    0.2235121093    0.9735990089    0.7589127160          0.3708
C333       C    0.2750971309    0.9597741870    0.7589136093          0.3708
C334       C    0.2889136361    0.9081874174    0.7589185488          0.3708
H335       H    0.2613729223    0.8322378613    0.7589262515          0.3708
H336       H    0.1475601061    0.9460717780    0.7589161008          0.3708
H337       H    0.2132843068    0.0117866175    0.7589090595          0.3708
H338       H    0.3270971230    0.8979527008    0.7589192102          0.3708
C319       C    0.7805058453    0.5980263314    0.0266444779          0.3708
C320       C    0.7927295814    0.6245646330    0.0713546969          0.3708
C321       C    0.8049527486    0.5976968322    0.1158574966          0.3708
C322       C    0.8049521798    0.5442907297    0.1156500772          0.3708
C323       C    0.7927284437    0.5177524281    0.0709398581          0.3708
C324       C    0.7805052764    0.5446202289    0.0264370585          0.3708
H325       H    0.7714575266    0.6179154826    0.9937008470          0.3708
H326       H    0.8140011015    0.6173395384    0.1489532502          0.3708
H327       H    0.8140004985    0.5244015785    0.1485937081          0.3708
H328       H    0.7714569236    0.5249775227    0.9933413049          0.3708
C309       C    0.6150800341    0.0249957880    0.7756878984          0.3708
C310       C    0.6416034555    0.0713521613    0.7756856709          0.3708
C311       C    0.6147209992    0.1174970658    0.7756848892          0.3708
C312       C    0.5613151215    0.1172855971    0.7756863350          0.3708
C313       C    0.5347917001    0.0709292238    0.7756885626          0.3708
C314       C    0.5616741564    0.0247843193    0.7756893443          0.3708
H315       H    0.6349800342    0.9908365729    0.7756884771          0.3708
H316       H    0.6343526906    0.1518113489    0.7756832404          0.3708
H317       H    0.5414151213    0.1514448122    0.7756857564          0.3708
H318       H    0.5420424649    0.9904700361    0.7756909931          0.3708
C299       C    0.8089120716    0.1143668336    0.5442963796          0.3708
C300       C    0.7927241791    0.0709356562    0.5177552192          0.3708
C301       C    0.7765358878    0.0277144065    0.5446197702          0.3708
C302       C    0.7765354890    0.0279243342    0.5980254815          0.3708
C303       C    0.7927233815    0.0713555117    0.6245666419          0.3708
C304       C    0.8089116728    0.1145767614    0.5977020909          0.3708
H305       H    0.8208956119    0.1463617847    0.5244096341          0.3708
H306       H    0.7645531550    0.9955654355    0.5249749478          0.3708
H307       H    0.7645519487    0.9959293832    0.6179122270          0.3708
H308       H    0.8208944056    0.1467257324    0.6173469133          0.3708
C289       C    0.8031473695    0.1749599577    0.9295852691          0.3708
C290       C    0.7759517465    0.1825243765    0.8842488870          0.3708
C291       C    0.7487549357    0.2278560780    0.8766792106          0.3708
C292       C    0.7487537480    0.2656233607    0.9144459161          0.3708
C293       C    0.7759493710    0.2580589419    0.9597822982          0.3708
C294       C    0.8031461818    0.2127272404    0.9673519747          0.3708
H295       H    0.8232800735    0.1414027241    0.9351887958          0.3708
H296       H    0.7286239715    0.2334566686    0.8431211421          0.3708
H297       H    0.7286210440    0.2991805943    0.9088423894          0.3708
H298       H    0.8232771459    0.2071266499    0.0009100431          0.3708
C279       C    0.0420316553    0.5980460189    0.7752855101          0.3708
C280       C    0.0883855266    0.6245706404    0.7756899387          0.3708
C281       C    0.1345291364    0.5976891902    0.7760925877          0.3708
C282       C    0.1343188748    0.5442831186    0.7760908081          0.3708
C283       C    0.0879650035    0.5177584971    0.7756863795          0.3708
C284       C    0.0418213937    0.5446399472    0.7752837305          0.3708
H285       H    0.0078733987    0.6179452742    0.7749874453          0.3708
H286       H    0.1688415675    0.6173217700    0.7763919570          0.3708
H287       H    0.1684771314    0.5243838632    0.7763888729          0.3708
H288       H    0.0075089626    0.5250073674    0.7749843612          0.3708
C269       C    0.9906350762    0.3834164640    0.9358322540          0.3708
C270       C    0.9768090336    0.3834119320    0.8842461314          0.3708
C271       C    0.9252221055    0.3834052569    0.8704248747          0.3708
C272       C    0.8874612199    0.3834031138    0.9081897405          0.3708
C273       C    0.9012872625    0.3834076457    0.9597758631          0.3708
C274       C    0.9528741906    0.3834143208    0.9735971198          0.3708
H275       H    0.0288228022    0.3834214053    0.9460635739          0.3708
H276       H    0.9149864853    0.3834019022    0.8322405727          0.3708
H277       H    0.8492734939    0.3833981725    0.8979584206          0.3708
H278       H    0.9631098108    0.3834176756    0.0117814218          0.3708
C259       C    0.9906355813    0.2064780810    0.7588926785          0.3708
C260       C    0.9768122170    0.2580636633    0.7588999549          0.3708
C261       C    0.9252260078    0.2718816263    0.7589109201          0.3708
C262       C    0.8874631628    0.2341140071    0.7589146091          0.3708
C263       C    0.9012865270    0.1825284249    0.7589073328          0.3708
C264       C    0.9528727363    0.1687104618    0.7588963675          0.3708
H265       H    0.0288227752    0.1962491993    0.7588845614          0.3708
H266       H    0.9149923702    0.3100655282    0.7589163064          0.3708
H267       H    0.8492759689    0.2443428888    0.7589227262          0.3708
H268       H    0.9631063739    0.1305265599    0.7588909812          0.3708
C249       C    0.5614917554    0.4128674121    0.0712586619          0.3708
C250       C    0.5347872791    0.3666152582    0.0713731116          0.3708
C251       C    0.5614886506    0.3203654176    0.0712748067          0.3708
C252       C    0.6148944984    0.3203677308    0.0710620522          0.3708
C253       C    0.6415989747    0.3666198847    0.0709476025          0.3708
C254       C    0.6148976032    0.4128697254    0.0710459074          0.3708
H255       H    0.5417258051    0.4471043071    0.0713314331          0.3708
H256       H    0.5417229372    0.2861282740    0.0713595189          0.3708
H257       H    0.6346604487    0.2861308358    0.0709892810          0.3708
H258       H    0.6346633167    0.4471068690    0.0709611952          0.3708
C239       C    0.3374347719    0.5444378294    0.0697572637          0.3708
C240       C    0.3836606326    0.5177423924    0.0713678244          0.3708
C241       C    0.4298877608    0.5444529574    0.0727628205          0.3708
C242       C    0.4298890283    0.5978589593    0.0725472559          0.3708
C243       C    0.3836631676    0.6245543962    0.0709366952          0.3708
C244       C    0.3374360394    0.5978438312    0.0695416991          0.3708
H245       H    0.3032146900    0.5246650735    0.0687246042          0.3708
H246       H    0.4641054415    0.5246939352    0.0739549959          0.3708
H247       H    0.4641091102    0.6176317152    0.0735799153          0.3708
H248       H    0.3032183587    0.6176028535    0.0683495237          0.3708
C229       C    0.5616764378    0.1175057210    0.3659108325          0.3708
C230       C    0.5347850063    0.0713674361    0.3666204455          0.3708
C231       C    0.5612994170    0.0250156308    0.3673330493          0.3708
C232       C    0.6147052592    0.0248021104    0.3673360401          0.3708
C233       C    0.6415966907    0.0709403953    0.3666264271          0.3708
C234       C    0.6150822800    0.1172922006    0.3659138233          0.3708
H235       H    0.5420488870    0.1518180963    0.3653833205          0.3708
H236       H    0.5413953141    0.9908627694    0.3678583249          0.3708
H237       H    0.6343328100    0.9904897351    0.3678635521          0.3708
H238       H    0.6349863829    0.1514450620    0.3653885477          0.3708
C219       C    0.3747880844    0.0258642149    0.5442601423          0.3708
C220       C    0.3836571026    0.0713645705    0.5177471973          0.3708
C221       C    0.3925275245    0.1166497077    0.5446398739          0.3708
C222       C    0.3925289282    0.1164344894    0.5980454955          0.3708
C223       C    0.3836599100    0.0709341338    0.6245584406          0.3708
C224       C    0.3747894881    0.0256489966    0.5976657640          0.3708
H225       H    0.3682216682    0.9923414510    0.5243525765          0.3708
H226       H    0.3990926209    0.1503303424    0.5250159373          0.3708
H227       H    0.3990953444    0.1499572533    0.6179530614          0.3708
H228       H    0.3682243916    0.9919683619    0.6172897006          0.3708
C209       C    0.3677280647    0.2245324132    0.2622968963          0.3708
C210       C    0.4004374539    0.1825297877    0.2580561597          0.3708
C211       C    0.4331471626    0.1782881505    0.2160546249          0.3708
C212       C    0.4331474821    0.2160491389    0.1782938268          0.3708
C213       C    0.4004380929    0.2580517644    0.1825345635          0.3708
C214       C    0.3677283842    0.2622934016    0.2245360982          0.3708
H215       H    0.3435143843    0.2276723265    0.2933889416          0.3708
H216       H    0.4573595715    0.1471978221    0.2129143175          0.3708
H217       H    0.4573611626    0.2129092256    0.1472017816          0.3708
H218       H    0.3435159753    0.2933837299    0.2276764057          0.3708
C199       C    0.0880816949    0.5978426975    0.3203720399          0.3708
C200       C    0.0879702804    0.6245511229    0.3666242448          0.3708
C201       C    0.0880718419    0.5978535147    0.4128733773          0.3708
C202       C    0.0882848180    0.5444474811    0.4128703049          0.3708
C203       C    0.0883962325    0.5177390556    0.3666181001          0.3708
C204       C    0.0882946709    0.5444366638    0.3203689676          0.3708
H205       H    0.0880065129    0.6176058620    0.2861356691          0.3708
H206       H    0.0879893765    0.6176221514    0.4471105586          0.3708
H207       H    0.0883599999    0.5246843165    0.4471066757          0.3708
H208       H    0.0883771363    0.5246680271    0.2861317862          0.3708
C189       C    0.0882967358    0.4128696347    0.5444452475          0.3708
C190       C    0.0883963240    0.3666173813    0.5177364767          0.3708
C191       C    0.0882824121    0.3203676353    0.5444333581          0.3708
C192       C    0.0880689120    0.3203701427    0.5978390104          0.3708
C193       C    0.0879693238    0.3666223961    0.6245477813          0.3708
C194       C    0.0880832357    0.4128721421    0.5978508998          0.3708
H195       H    0.0883810602    0.4471064596    0.5246826210          0.3708
H196       H    0.0883561234    0.2861304181    0.5246644658          0.3708
H197       H    0.0879845876    0.2861333178    0.6176016370          0.3708
H198       H    0.0880095244    0.4471093593    0.6176197922          0.3708
C179       C    0.2184618174    0.3371366249    0.2391786199          0.3708
C180       C    0.1995666251    0.3833869600    0.2580532866          0.3708
C181       C    0.2184359851    0.4296386154    0.2391667543          0.3708
C182       C    0.2562005376    0.4296399357    0.2014055552          0.3708
C183       C    0.2750957300    0.3833896007    0.1825308885          0.3708
C184       C    0.2562263699    0.3371379453    0.2014174208          0.3708
H185       H    0.2044935898    0.3028983865    0.2531595594          0.3708
H186       H    0.2044504281    0.4638744127    0.2531371178          0.3708
H187       H    0.2701687652    0.4638781741    0.1874246157          0.3708
H188       H    0.2702119270    0.3029021479    0.1874470573          0.3708
C169       C    0.2184549441    0.2391827527    0.4296396821          0.3708
C170       C    0.1995664656    0.2580501511    0.3833878786          0.3708
C171       C    0.2184420080    0.2391559898    0.3371383445          0.3708
C172       C    0.2562060289    0.2013944301    0.3371406138          0.3708
C173       C    0.2750945074    0.1825270318    0.3833924173          0.3708
C174       C    0.2562189650    0.2014211931    0.4296419514          0.3708
H175       H    0.2044821400    0.2531693396    0.4638763502          0.3708
H176       H    0.2044614207    0.2531209730    0.3029014603          0.3708
H177       H    0.2701788330    0.1874078432    0.3029039457          0.3708
H178       H    0.2701995523    0.1874562098    0.4638788356          0.3708
loop_
_geom_bond_atom_site_label_1
_geom_bond_atom_site_label_2
_geom_bond_distance
_geom_bond_site_symmetry_2
_ccdc_geom_bond_type
O1          Cu9 1.951       .   S
O1          C11 1.250       .   A
O2          Cu9 1.951       .   S
O2          C12 1.250       .   A
O3          Cu9 1.951       .   S
O3          C13 1.250       .   A
O4          Cu9 1.951       .   S
O4          C14 1.250       .   A
O5         Cu10 1.951       .   S
O5          C14 1.250       .   A
O6         Cu10 1.951       .   S
O6          C13 1.251       .   A
O7         Cu10 1.951       .   S
O7          C12 1.250       .   A
O8         Cu10 1.951       .   S
O8          C11 1.250       .   A
Cu9        Cu10 2.630       .   S
C11        C203 1.846       .   S
C12        C170 1.559       .   S
C13        C190 1.846       .   S
C14        C180 1.559       .   S
O15        Cu23 1.951       .   S
O15         C25 1.250       .   A
O16        Cu23 1.951       .   S
O16         C26 1.250       .   A
O17        Cu23 1.951       .   S
O17         C27 1.250       .   A
O18        Cu23 1.951       .   S
O18         C28 1.250       .   A
O19        Cu24 1.951       .   S
O19         C28 1.250       .   A
O20        Cu24 1.951       .   S
O20         C27 1.251       .   A
O21        Cu24 1.951       .   S
O21         C26 1.250       .   A
O22        Cu24 1.951       .   S
O22         C25 1.250       .   A
Cu23       Cu24 2.630       .   S
C25        C210 1.559       .   S
C26        C220 1.846       .   S
C27        C173 1.559       .   S
C28        C230 1.846       .   S
O29        Cu37 1.951       .   S
O29         C39 1.250       .   A
O30        Cu37 1.951       .   S
O30         C40 1.250       .   A
O31        Cu37 1.951       .   S
O31         C41 1.250       .   A
O32        Cu37 1.951       .   S
O32         C42 1.250       .   A
O33        Cu38 1.951       .   S
O33         C42 1.250       .   A
O34        Cu38 1.951       .   S
O34         C41 1.251       .   A
O35        Cu38 1.951       .   S
O35         C40 1.250       .   A
O36        Cu38 1.951       .   S
O36         C39 1.250       .   A
Cu37       Cu38 2.630       .   S
C39        C213 1.559       .   S
C40        C240 1.846       .   S
C41        C183 1.559       .   S
C42        C250 1.846       .   S
O43        Cu51 1.951       .   S
O43         C53 1.250       .   A
O44        Cu51 1.951       .   S
O44         C54 1.250       .   A
O45        Cu51 1.951       .   S
O45         C55 1.250       .   A
O46        Cu51 1.951       .   S
O46         C56 1.250       .   A
O47        Cu52 1.951       .   S
O47         C56 1.250       .   A
O48        Cu52 1.951       .   S
O48         C55 1.251       .   A
O49        Cu52 1.951       .   S
O49         C54 1.250       .   A
O50        Cu52 1.951       .   S
O50         C53 1.250       .   A
Cu51       Cu52 2.630       .   S
C53        C193 1.846       .   S
C54        C270 1.559       .   S
C55        C283 1.845       .   S
C56        C260 1.558       .   S
O57        Cu65 1.951       .   S
O57         C67 1.250       .   A
O58        Cu65 1.951       .   S
O58         C68 1.250       .   A
O59        Cu65 1.951       .   S
O59         C69 1.250       .   A
O60        Cu65 1.951       .   S
O60         C70 1.250       .   A
O61        Cu66 1.951       .   S
O61         C70 1.250       .   A
O62        Cu66 1.951       .   S
O62         C69 1.251       .   A
O63        Cu66 1.951       .   S
O63         C68 1.250       .   A
O64        Cu66 1.951       .   S
O64         C67 1.250       .   A
Cu65       Cu66 2.630       .   S
C67        C263 1.558   1_655   S
C68        C310 1.845       .   S
C69        C290 1.558       .   S
C70        C303 1.845       .   S
O71        Cu79 1.951       .   S
O71         C81 1.250       .   A
O72        Cu79 1.951       .   S
O72         C82 1.250       .   A
O73        Cu79 1.951       .   S
O73         C83 1.250       .   A
O74        Cu79 1.951       .   S
O74         C84 1.250       .   A
O75        Cu80 1.951       .   S
O75         C84 1.250       .   A
O76        Cu80 1.951       .   S
O76         C83 1.251       .   A
O77        Cu80 1.951       .   S
O77         C82 1.250       .   A
O78        Cu80 1.951       .   S
O78         C81 1.250       .   A
Cu79       Cu80 2.630       .   S
C81        C253 1.846       .   S
C82        C273 1.559   1_654   S
C83        C323 1.845       .   S
C84        C293 1.558   1_554   S
O85        Cu93 1.951       .   S
O85         C95 1.250       .   A
O86        Cu93 1.951       .   S
O86         C96 1.250       .   A
O87        Cu93 1.951       .   S
O87         C97 1.250       .   A
O88        Cu93 1.951       .   S
O88         C98 1.250       .   A
O89        Cu94 1.951       .   S
O89         C98 1.250       .   A
O90        Cu94 1.951       .   S
O90         C97 1.251       .   A
O91        Cu94 1.951       .   S
O91         C96 1.250       .   A
O92        Cu94 1.951       .   S
O92         C95 1.250       .   A
Cu93       Cu94 2.630       .   S
C95        C223 1.846       .   S
C96        C340 1.559       .   S
C97        C313 1.845       .   S
C98        C333 1.558       .   S
O99       Cu107 1.951       .   S
O99        C109 1.250       .   A
O100      Cu107 1.951       .   S
O100       C110 1.250       .   A
O101      Cu107 1.951       .   S
O101       C111 1.250       .   A
O102      Cu107 1.951       .   S
O102       C112 1.250       .   A
O103      Cu108 1.951       .   S
O103       C112 1.250       .   A
O104      Cu108 1.951       .   S
O104       C111 1.251       .   A
O105      Cu108 1.951       .   S
O105       C110 1.250       .   A
O106      Cu108 1.951       .   S
O106       C109 1.250       .   A
Cu107     Cu108 2.630       .   S
C109       C360 1.846       .   S
C110       C350 1.558       .   S
C111       C280 1.845       .   S
C112       C330 1.558   1_565   S
O113      Cu121 1.951       .   S
O113       C123 1.250       .   A
O114      Cu121 1.951       .   S
O114       C124 1.250       .   A
O115      Cu121 1.951       .   S
O115       C125 1.250       .   A
O116      Cu121 1.951       .   S
O116       C126 1.250       .   A
O117      Cu122 1.951       .   S
O117       C126 1.250       .   A
O118      Cu122 1.951       .   S
O118       C125 1.251       .   A
O119      Cu122 1.951       .   S
O119       C124 1.250       .   A
O120      Cu122 1.951       .   S
O120       C123 1.250       .   A
Cu121     Cu122 2.630       .   S
C123       C243 1.846       .   S
C124       C343 1.559   1_564   S
C125       C373 1.846       .   S
C126       C353 1.558   1_554   S
O127      Cu135 1.951       .   S
O127       C137 1.250       .   A
O128      Cu135 1.951       .   S
O128       C138 1.250       .   A
O129      Cu135 1.951       .   S
O129       C139 1.250       .   A
O130      Cu135 1.951       .   S
O130       C140 1.250       .   A
O131      Cu136 1.951       .   S
O131       C140 1.250       .   A
O132      Cu136 1.951       .   S
O132       C139 1.251       .   A
O133      Cu136 1.951       .   S
O133       C138 1.250       .   A
O134      Cu136 1.951       .   S
O134       C137 1.250       .   A
Cu135     Cu136 2.630       .   S
C137       C200 1.846       .   S
C138       C380 1.558       .   S
C139       C363 1.846       .   S
C140       C393 1.558       .   S
O141      Cu149 1.951       .   S
O141       C151 1.250       .   A
O142      Cu149 1.951       .   S
O142       C152 1.250       .   A
O143      Cu149 1.951       .   S
O143       C153 1.250       .   A
O144      Cu149 1.951       .   S
O144       C154 1.250       .   A
O145      Cu150 1.951       .   S
O145       C154 1.250       .   A
O146      Cu150 1.951       .   S
O146       C153 1.251       .   A
O147      Cu150 1.951       .   S
O147       C152 1.250       .   A
O148      Cu150 1.951       .   S
O148       C151 1.250       .   A
Cu149     Cu150 2.630       .   S
C151       C233 1.846       .   S
C152       C383 1.558   1_645   S
C153       C300 1.845       .   S
C154       C400 1.558       .   S
O155      Cu163 1.951       .   S
O155       C165 1.250       .   A
O156      Cu163 1.951       .   S
O156       C166 1.250       .   A
O157      Cu163 1.951       .   S
O157       C167 1.250       .   A
O158      Cu163 1.951       .   S
O158       C168 1.250       .   A
O159      Cu164 1.951       .   S
O159       C168 1.250       .   A
O160      Cu164 1.951       .   S
O160       C167 1.251       .   A
O161      Cu164 1.951       .   S
O161       C166 1.250       .   A
O162      Cu164 1.951       .   S
O162       C165 1.250       .   A
Cu163     Cu164 2.630       .   S
C165       C390 1.558   1_655   S
C166       C370 1.846       .   S
C167       C403 1.558   1_565   S
C168       C320 1.845       .   S
C399       C400 1.540       .   A
C399       C404 1.540       .   A
C399       H405 1.140       .   S
C400       C401 1.540       .   A
C401       C402 1.540       .   A
C401       H406 1.140       .   S
C402       C403 1.540       .   A
C402       H407 1.140       .   S
C403       C404 1.540       .   A
C404       H408 1.140       .   S
C389       C390 1.540       .   A
C389       C394 1.540       .   A
C389       H395 1.140       .   S
C390       C391 1.540       .   A
C391       C392 1.540       .   A
C391       H396 1.140       .   S
C392       C393 1.540       .   A
C392       H397 1.140       .   S
C393       C394 1.540       .   A
C394       H398 1.140       .   S
C379       C380 1.540       .   A
C379       C384 1.540       .   A
C379       H385 1.140       .   S
C380       C381 1.540       .   A
C381       C382 1.540       .   A
C381       H386 1.140       .   S
C382       C383 1.540       .   A
C382       H387 1.140       .   S
C383       C384 1.540       .   A
C384       H388 1.140       .   S
C369       C370 1.540       .   A
C369       C374 1.540       .   A
C369       H375 1.140       .   S
C370       C371 1.540       .   A
C371       C372 1.540       .   A
C371       H376 1.140       .   S
C372       C373 1.540       .   A
C372       H377 1.140       .   S
C373       C374 1.540       .   A
C374       H378 1.140       .   S
C359       C360 1.540       .   A
C359       C364 1.540       .   A
C359       H365 1.140       .   S
C360       C361 1.540       .   A
C361       C362 1.540       .   A
C361       H366 1.140       .   S
C362       C363 1.540       .   A
C362       H367 1.140       .   S
C363       C364 1.540       .   A
C364       H368 1.140       .   S
C349       C350 1.540       .   A
C349       C354 1.540       .   A
C349       H355 1.140       .   S
C350       C351 1.540       .   A
C351       C352 1.540       .   A
C351       H356 1.140       .   S
C352       C353 1.540       .   A
C352       H357 1.140       .   S
C353       C354 1.540       .   A
C354       H358 1.140       .   S
C339       C340 1.540       .   A
C339       C344 1.540       .   A
C339       H345 1.140       .   S
C340       C341 1.540       .   A
C341       C342 1.540       .   A
C341       H346 1.140       .   S
C342       C343 1.540       .   A
C342       H347 1.140       .   S
C343       C344 1.540       .   A
C344       H348 1.140       .   S
C329       C330 1.540       .   A
C329       C334 1.540       .   A
C329       H335 1.140       .   S
C330       C331 1.540       .   A
C331       C332 1.540       .   A
C331       H336 1.140       .   S
C332       C333 1.540       .   A
C332       H337 1.140       .   S
C333       C334 1.540       .   A
C334       H338 1.140       .   S
C319       C320 1.540       .   A
C319       C324 1.540       .   A
C319       H325 1.140       .   S
C320       C321 1.540       .   A
C321       C322 1.540       .   A
C321       H326 1.140       .   S
C322       C323 1.540       .   A
C322       H327 1.140       .   S
C323       C324 1.540       .   A
C324       H328 1.140       .   S
C309       C310 1.540       .   A
C309       C314 1.540       .   A
C309       H315 1.140       .   S
C310       C311 1.540       .   A
C311       C312 1.540       .   A
C311       H316 1.140       .   S
C312       C313 1.540       .   A
C312       H317 1.140       .   S
C313       C314 1.540       .   A
C314       H318 1.140       .   S
C299       C300 1.540       .   A
C299       C304 1.540       .   A
C299       H305 1.140       .   S
C300       C301 1.540       .   A
C301       C302 1.540       .   A
C301       H306 1.140       .   S
C302       C303 1.540       .   A
C302       H307 1.140       .   S
C303       C304 1.540       .   A
C304       H308 1.140       .   S
C289       C290 1.540       .   A
C289       C294 1.540       .   A
C289       H295 1.140       .   S
C290       C291 1.540       .   A
C291       C292 1.540       .   A
C291       H296 1.140       .   S
C292       C293 1.540       .   A
C292       H297 1.140       .   S
C293       C294 1.540       .   A
C294       H298 1.140       .   S
C279       C280 1.540       .   A
C279       C284 1.540       .   A
C279       H285 1.140       .   S
C280       C281 1.540       .   A
C281       C282 1.540       .   A
C281       H286 1.140       .   S
C282       C283 1.540       .   A
C282       H287 1.140       .   S
C283       C284 1.540       .   A
C284       H288 1.140       .   S
C269       C270 1.540       .   A
C269       C274 1.540       .   A
C269       H275 1.140       .   S
C270       C271 1.540       .   A
C271       C272 1.540       .   A
C271       H276 1.140       .   S
C272       C273 1.540       .   A
C272       H277 1.140       .   S
C273       C274 1.540       .   A
C274       H278 1.140       .   S
C259       C260 1.540       .   A
C259       C264 1.540       .   A
C259       H265 1.140       .   S
C260       C261 1.540       .   A
C261       C262 1.540       .   A
C261       H266 1.140       .   S
C262       C263 1.540       .   A
C262       H267 1.140       .   S
C263       C264 1.540       .   A
C264       H268 1.140       .   S
C249       C250 1.540       .   A
C249       C254 1.540       .   A
C249       H255 1.140       .   S
C250       C251 1.540       .   A
C251       C252 1.540       .   A
C251       H256 1.140       .   S
C252       C253 1.540       .   A
C252       H257 1.140       .   S
C253       C254 1.540       .   A
C254       H258 1.140       .   S
C239       C240 1.540       .   A
C239       C244 1.540       .   A
C239       H245 1.140       .   S
C240       C241 1.540       .   A
C241       C242 1.540       .   A
C241       H246 1.140       .   S
C242       C243 1.540       .   A
C242       H247 1.140       .   S
C243       C244 1.540       .   A
C244       H248 1.140       .   S
C229       C230 1.540       .   A
C229       C234 1.540       .   A
C229       H235 1.140       .   S
C230       C231 1.540       .   A
C231       C232 1.540       .   A
C231       H236 1.140       .   S
C232       C233 1.540       .   A
C232       H237 1.140       .   S
C233       C234 1.540       .   A
C234       H238 1.140       .   S
C219       C220 1.540       .   A
C219       C224 1.540       .   A
C219       H225 1.140       .   S
C220       C221 1.540       .   A
C221       C222 1.540       .   A
C221       H226 1.140       .   S
C222       C223 1.540       .   A
C222       H227 1.140       .   S
C223       C224 1.540       .   A
C224       H228 1.140       .   S
C209       C210 1.540       .   A
C209       C214 1.540       .   A
C209       H215 1.140       .   S
C210       C211 1.540       .   A
C211       C212 1.540       .   A
C211       H216 1.140       .   S
C212       C213 1.540       .   A
C212       H217 1.140       .   S
C213       C214 1.540       .   A
C214       H218 1.140       .   S
C199       C200 1.540       .   A
C199       C204 1.540       .   A
C199       H205 1.140       .   S
C200       C201 1.540       .   A
C201       C202 1.540       .   A
C201       H206 1.140       .   S
C202       C203 1.540       .   A
C202       H207 1.140       .   S
C203       C204 1.540       .   A
C204       H208 1.140       .   S
C189       C190 1.540       .   A
C189       C194 1.540       .   A
C189       H195 1.140       .   S
C190       C191 1.540       .   A
C191       C192 1.540       .   A
C191       H196 1.140       .   S
C192       C193 1.540       .   A
C192       H197 1.140       .   S
C193       C194 1.540       .   A
C194       H198 1.140       .   S
C179       C180 1.540       .   A
C179       C184 1.540       .   A
C179       H185 1.140       .   S
C180       C181 1.540       .   A
C181       C182 1.540       .   A
C181       H186 1.140       .   S
C182       C183 1.540       .   A
C182       H187 1.140       .   S
C183       C184 1.540       .   A
C184       H188 1.140       .   S
C169       C170 1.540       .   A
C169       C174 1.540       .   A
C169       H175 1.140       .   S
C170       C171 1.540       .   A
C171       C172 1.540       .   A
C171       H176 1.140       .   S
C172       C173 1.540       .   A
C172       H177 1.140       .   S
C173       C174 1.540       .   A
C174       H178 1.140       .   S
