data_csq_v1-4c_B_Ch_v2-8c_Zr_1_Ch_1-1B_4H_Ch
_audit_creation_date              2024-08-05
_audit_creation_method            'tobacco_3.0'
_symmetry_space_group_name_H-M    'P1'
_symmetry_Int_Tables_number       1
_symmetry_cell_setting            triclinic
loop_
_symmetry_equiv_pos_as_xyz
  x,y,z
_cell_length_a                    41.344588559315895
_cell_length_b                    41.349658494217834
_cell_length_c                    12.0909509932746
_cell_angle_alpha                 89.99983706051569
_cell_angle_beta                  90.0002531992701
_cell_angle_gamma                 120.00404339560318
loop_
_atom_site_label
_atom_site_type_symbol
_atom_site_fract_x
_atom_site_fract_y
_atom_site_fract_z
_atom_site_charge
C1         C    0.7818909553    0.4999999836    0.9341925066         -0.9062
C2         C    0.7826112356    0.4999999832    0.0615310129         -0.9066
C3         C    0.7507202803    0.4999999996    0.1273385063         -1.1117
C4         C    0.7181090447    0.5000000164    0.0658074934         -0.9062
C5         C    0.7173887644    0.5000000168    0.9384689871         -0.9066
C6         C    0.7492797197    0.5000000004    0.8726614937         -1.1117
H7         H    0.7487441557    0.5000000006    0.7783844975         -0.8861
H8         H    0.7512558443    0.4999999994    0.2216155025         -0.8861
C9         C    0.4749724716    0.1927431241    0.0663829004         -0.9062
C10        C    0.4749724716    0.1927445403    0.9390205880         -0.9066
C11        C    0.4749724924    0.2249984718    0.8753376456         -1.1117
C12        C    0.4749725131    0.2572509870    0.9390170156         -0.9062
C13        C    0.4749725131    0.2572495707    0.0663793280         -0.9066
C14        C    0.4749724923    0.2249956393    0.1300622704         -1.1117
H15        H    0.4749724923    0.2249968835    0.2243570439         -0.8861
H16        H    0.4749724923    0.2249972275    0.7810428722         -0.8861
C17        C    0.7181091937    0.1931304001    0.0658097799         -0.9062
C18        C    0.7173889017    0.1924101078    0.9384712814         -0.9066
C19        C    0.7492798469    0.2243010649    0.8726634433         -1.1117
C20        C    0.7818910840    0.2569123143    0.9341941036         -0.9062
C21        C    0.7826113760    0.2576326066    0.0615326021         -0.9066
C22        C    0.7507204309    0.2257416495    0.1273404402         -1.1117
H23        H    0.7512560035    0.2262772223    0.2216174307         -0.8861
H24        H    0.7487442742    0.2237654920    0.7783864528         -0.8861
C25        C    0.5044281222    0.7719787607    0.0662353261         -0.9062
C26        C    0.5044281222    0.7719774982    0.9388730137         -0.9066
C27        C    0.5044281427    0.7397236642    0.8751902434         -1.1117
C28        C    0.5044281632    0.7074710927    0.9388697855         -0.9062
C29        C    0.5044281632    0.7074723553    0.0662320979         -0.9066
C30        C    0.5044281427    0.7397261893    0.1299148682         -1.1117
H31        H    0.5044281427    0.7397248312    0.2242096417         -0.8861
H32        H    0.5044281427    0.7397250223    0.7808954700         -0.8861
C33        C    0.2034255431    0.4706408191    0.9342093715         -0.9062
C34        C    0.2027113145    0.4706408187    0.0615482547         -0.9066
C35        C    0.2346054134    0.4706408350    0.1273389885         -1.1117
C36        C    0.2672137410    0.4706408516    0.0657908391         -0.9062
C37        C    0.2679279695    0.4706408520    0.9384519560         -0.9066
C38        C    0.2360338706    0.4706408357    0.8726612221         -1.1117
H39        H    0.2365649541    0.4706408360    0.7783839456         -0.8861
H40        H    0.2340743299    0.4706408347    0.2216162650         -0.8861
C41        C    0.2034255778    0.7078063582    0.9342105908         -0.9062
C42        C    0.2027111795    0.7070919601    0.0615494697         -0.9066
C43        C    0.2346051821    0.7389859508    0.1273403912         -1.1117
C44        C    0.2672135830    0.7715943396    0.0657924337         -0.9062
C45        C    0.2679279814    0.7723087377    0.9384535547         -0.9234
C46        C    0.2360339788    0.7404147470    0.8726626332         -1.1117
H47        H    0.2365651881    0.7409459561    0.7783853598         -0.8861
H48        H    0.2340739728    0.7384547417    0.2216176646         -0.8861
O49        O    0.9397523358    0.3972765575    0.6847997482           0.068
O50        O    0.8938953299    0.4073024690    0.5702318170           0.068
C51        C    0.9034932006    0.3908968853    0.6581099047           0.068
O52        O    0.0402605847    0.5677516797    0.6842406177           0.068
O53        O    0.0859629291    0.5576457095    0.5691444017           0.068
C54        C    0.0764847968    0.5741145085    0.6571283324           0.068
O55        O    0.9397524615    0.5174977114    0.6848116672           0.068
O56        O    0.8938953857    0.4616121163    0.5702356574           0.068
C57        C    0.9034932963    0.4876189190    0.6581112052           0.068
O58        O    0.0402604590    0.4475305257    0.6842286987           0.068
O59        O    0.0859628734    0.5033360622    0.5691405612           0.068
C60        C    0.0764847011    0.4773924748    0.6571270319           0.068
Zr61      Zr    0.9899588209    0.4421545139    0.6154912125             1.0
O62        O    0.9900715588    0.4454962106    0.7891691632           0.068
O63        O    0.9947770081    0.3931414377    0.6116999744           0.068
Zr64      Zr    0.9899589007    0.5228248058    0.6154922972             1.0
O65        O    0.9847048966    0.5200790046    0.7913051462           0.068
O66        O    0.9961892046    0.5768235314    0.6011912007           0.068
O67        O    0.9560332156    0.4655270515    0.6382221304           0.068
O68        O    0.0239137643    0.4994672628    0.6378364586           0.068
O69        O    0.0399922645    0.4473964515    0.2710509690           0.068
O70        O    0.0858437544    0.5032792537    0.3856270104           0.068
C71        C    0.0762514297    0.4772752440    0.2977514309           0.068
O72        O    0.9394842670    0.5173636373    0.2716339375           0.068
O73        O    0.8937762667    0.4615553078    0.3867221067           0.068
C74        C    0.9032600249    0.4875016882    0.2987356043           0.068
O75        O    0.0399923902    0.5676176055    0.2710628880           0.068
O76        O    0.0858438101    0.5575889010    0.3856308509           0.068
C77        C    0.0762515254    0.5739972777    0.2977527314           0.068
O78        O    0.9394841413    0.3971424833    0.2716220184           0.068
O79        O    0.8937762109    0.4072456605    0.3867182662           0.068
C80        C    0.9032599292    0.3907796545    0.2987343038           0.068
Zr81      Zr    0.9897802394    0.4420665642    0.3403703707             1.0
O82        O    0.9847001097    0.4403256339    0.1644405181           0.068
O83        O    0.9886309631    0.3903003919    0.3512643129           0.068
Zr84      Zr    0.9897803192    0.5227368561    0.3403714554             1.0
O85        O    0.9912195117    0.5227508376    0.1651931772           0.068
O86        O    0.9877903921    0.5730632589    0.3554730706           0.068
Zr87      Zr    0.9341440636    0.4545829836    0.4782479454             1.0
Zr88      Zr    0.0456006624    0.5103111794    0.4776146908             1.0
O89        O    0.0237059245    0.4993643185    0.3176405375           0.068
O90        O    0.9558253758    0.4654241072    0.3180262093           0.068
O91        O    0.0241058542    0.4526385111    0.4777369626           0.068
O92        O    0.9556332859    0.5122528589    0.4781257053           0.068
O93        O    0.9556331940    0.4184022446    0.4781259985           0.068
O94        O    0.0241059461    0.5464891253    0.4777366693           0.068
H95        H    0.0403367880    0.5076808217    0.7156724212           0.068
H96        H    0.9386743436    0.5261974254    0.4782235277           0.068
H97        H    0.0400277804    0.5075231689    0.2396185307           0.068
H98        H    0.9386742058    0.3874987444    0.4782208852           0.068
H99        H    0.9715963345    0.5746193124    0.5873368255           0.068
H100       H    0.0108011975    0.5919510816    0.3932184904           0.068
H101       H    0.9721602210    0.4975940698    0.1394992622           0.068
H102       H    0.0053024474    0.4633129917    0.1319281704           0.068
H103       H    0.0102664917    0.3939138969    0.3959022100           0.068
H104       H    0.9737463940    0.3733390452    0.5695965521           0.068
H105       H    0.9693131104    0.4492453187    0.8134923842           0.068
H106       H    0.0050142211    0.5171770091    0.8237605773           0.068
H107       H    0.9892295132    0.4202738487    0.1373872588           0.068
H108       H    0.9906651105    0.3831701713    0.6882109155           0.068
H109       H    0.9898555729    0.5449384795    0.8177124647           0.068
H110       H    0.9897857181    0.5831103239    0.2797521140           0.068
O111       O    0.4574634891    0.3972435194    0.3153118110           0.068
O112       O    0.5133643316    0.4072820334    0.4298224048           0.068
C113       C    0.4873431745    0.3908645325    0.3419822206           0.068
O114       O    0.5274865449    0.5677203286    0.3156482708           0.068
O115       O    0.4716951040    0.5576378312    0.4308018051           0.068
C116       C    0.4976330919    0.5740909234    0.3427799832           0.068
O117       O    0.5777203119    0.5174582773    0.3150823091           0.068
O118       O    0.5676900935    0.4615887916    0.4297202718           0.068
C119       C    0.5840939117    0.4875814216    0.3418058672           0.068
O120       O    0.4072297220    0.4475055706    0.3158777728           0.068
O121       O    0.4173693422    0.5033310730    0.4309039382           0.068
C122       C    0.4008823547    0.4773740342    0.3429563366           0.068
Zr123     Zr    0.4521615009    0.4421353075    0.3845820062             1.0
O124       O    0.4553651206    0.4454495482    0.2108981279           0.068
O125       O    0.3983164744    0.3931259451    0.3884660666           0.068
Zr126     Zr    0.5328557328    0.5228013086    0.3844349199             1.0
O127       O    0.5353361751    0.5200274702    0.2086225762           0.068
O128       O    0.5806427326    0.5768000705    0.3986436070           0.068
O129       O    0.5094613539    0.4654994300    0.3617798076           0.068
O130       O    0.4755347859    0.4994451003    0.3621620433           0.068
O131       O    0.4074264508    0.4474363982    0.7290554587           0.068
O132       O    0.4174594611    0.5033030906    0.6144174645           0.068
C133       C    0.4010528510    0.4773132539    0.7023319006           0.068
O134       O    0.5779170407    0.5173891049    0.7282599950           0.068
O135       O    0.5677802125    0.4615608091    0.6132337981           0.068
C136       C    0.5842644080    0.4875206413    0.7011814312           0.068
O137       O    0.5276832737    0.5676511561    0.7288259568           0.068
O138       O    0.4717852230    0.5576098487    0.6143153315           0.068
C139       C    0.4978035882    0.5740301431    0.7021555472           0.068
O140       O    0.4576602179    0.3971743470    0.7284894970           0.068
O141       O    0.5134544506    0.4072540510    0.6133359312           0.068
C142       C    0.4875136709    0.3908037522    0.7013577846           0.068
Zr143     Zr    0.4522938219    0.4420905735    0.6597028164             1.0
O144       O    0.4556589146    0.4403768407    0.8356314555           0.068
O145       O    0.4016597991    0.3903253208    0.6489015832           0.068
Zr146     Zr    0.5329880537    0.5227565746    0.6595557302             1.0
O147       O    0.5315894909    0.5227982340    0.8347351882           0.068
O148       O    0.5853169726    0.5730777166    0.6443613334           0.068
Zr149     Zr    0.5204262784    0.4545787581    0.5217550775             1.0
Zr150     Zr    0.4647204843    0.5103159174    0.5223826902             1.0
O151       O    0.4756882008    0.4993924521    0.6823579287           0.068
O152       O    0.5096147687    0.4654467818    0.6819756930           0.068
O153       O    0.4285242918    0.4526440163    0.5223464345           0.068
O154       O    0.5566252628    0.5122478658    0.5217913018           0.068
O155       O    0.4627467959    0.4184022431    0.5219608646           0.068
O156       O    0.5224027587    0.5464896390    0.5221768717           0.068
H157       H    0.4673168345    0.5076477348    0.2843252564           0.068
H158       H    0.5875320081    0.5261898755    0.5216537537           0.068
H159       H    0.4675403243    0.5075648604    0.7603791022           0.068
H160       H    0.4487921672    0.3874985719    0.5219074207           0.068
H161       H    0.6030315224    0.5745955359    0.4124809598           0.068
H162       H    0.5811951114    0.5919610457    0.6066013930           0.068
H163       H    0.5254874078    0.4976448190    0.8604583473           0.068
H164       H    0.4580568044    0.4633702710    0.8681197956           0.068
H165       H    0.3836332307    0.3939339156    0.6042756358           0.068
H166       H    0.3995440682    0.3733289898    0.4305873559           0.068
H167       H    0.4798690021    0.4491924321    0.1865503908           0.068
H168       H    0.5121201475    0.5171226846    0.1761897523           0.068
H169       H    0.4310760989    0.4203308536    0.8627248713           0.068
H170       H    0.3924423146    0.3831427505    0.3119696698           0.068
H171       H    0.5550486444    0.5448820201    0.1821746696           0.068
H172       H    0.5933832929    0.5831363571    0.7200658004           0.068
O173       O    0.5777199238    0.0352840242    0.3151007026           0.068
O174       O    0.5676922788    0.0811230342    0.4297297755           0.068
C175       C    0.5840927857    0.0715343950    0.3418132694           0.068
O176       O    0.4072293787    0.9347457428    0.3158705495           0.068
O177       O    0.4173719596    0.8890598518    0.4309055943           0.068
C178       C    0.4008815305    0.8985299335    0.3429601068           0.068
O179       O    0.4574628644    0.0352415417    0.3153041514           0.068
O180       O    0.5133664116    0.0811038438    0.4298232270           0.068
C181       C    0.4873418662    0.0715002217    0.3419852396           0.068
O182       O    0.5274864380    0.9347882253    0.3156671008           0.068
O183       O    0.4716978269    0.8890790421    0.4308121428           0.068
C184       C    0.4976324500    0.8985641068    0.3427881365           0.068
Zr185     Zr    0.5328567845    0.9850762702    0.3844423304             1.0
O186       O    0.5294877311    0.9849635415    0.2107702840           0.068
O187       O    0.5818867717    0.9802767660    0.3881412257           0.068
Zr188     Zr    0.4521624005    0.9850477682    0.3845857609             1.0
O189       O    0.4548804483    0.9903023367    0.2087729665           0.068
O190       O    0.3981519167    0.9788002059    0.3989777214           0.068
O191       O    0.5094618615    0.0189836539    0.3617852435           0.068
O192       O    0.4755354835    0.9511114287    0.3621677740           0.068
O193       O    0.5276832590    0.9350536442    0.7288447856           0.068
O194       O    0.4717825037    0.8891969274    0.6143256785           0.068
C195       C    0.4978042572    0.8987949642    0.7021636974           0.068
O196       O    0.4576596855    0.0355069605    0.7284818362           0.068
O197       O    0.5134510884    0.0812217290    0.6133367627           0.068
C198       C    0.4875136735    0.0717310791    0.7013608004           0.068
O199       O    0.4074261997    0.9350111617    0.7290482343           0.068
O200       O    0.4174566364    0.8891777370    0.6144191300           0.068
C201       C    0.4010533377    0.8987607909    0.7023356676           0.068
O202       O    0.5779167448    0.0355494430    0.7282783874           0.068
O203       O    0.5677769557    0.0812409194    0.6132433112           0.068
C204       C    0.5842645930    0.0717652524    0.7011888302           0.068
Zr205     Zr    0.5329865148    0.9852530030    0.6595631446             1.0
O206       O    0.5347529161    0.9903310601    0.8354946395           0.068
O207       O    0.5847660861    0.9864202467    0.6485775510           0.068
Zr208     Zr    0.4522921308    0.9852245010    0.6597065751             1.0
O209       O    0.4523052785    0.9837845708    0.8348834983           0.068
O210       O    0.4019477019    0.9871962025    0.6446969927           0.068
Zr211     Zr    0.5204258028    0.0408690589    0.5217604202             1.0
Zr212     Zr    0.4647203206    0.9294261270    0.5223885168             1.0
O213       O    0.4756870538    0.9513171172    0.6823636620           0.068
O214       O    0.5096134318    0.0191893424    0.6819811315           0.068
O215       O    0.5224026225    0.9509348325    0.5221831763           0.068
O216       O    0.4627462927    0.0193659387    0.5219657291           0.068
O217       O    0.5566249350    0.0193990965    0.5217973091           0.068
O218       O    0.4285239803    0.9509016747    0.5223515964           0.068
H219       H    0.4673134259    0.9346909355    0.2843310658           0.068
H220       H    0.4487915732    0.0363149010    0.5219088627           0.068
H221       H    0.4675433751    0.9349967461    0.7603848989           0.068
H222       H    0.5875316763    0.0363639057    0.5216630362           0.068
H223       H    0.4003502370    0.0033864118    0.4128513123           0.068
H224       H    0.3830566068    0.9641858690    0.6069637385           0.068
H225       H    0.4774667510    0.0028468590    0.8605502968           0.068
H226       H    0.5117708921    0.9697265640    0.8680287558           0.068
H227       H    0.5811523382    0.9647902064    0.6039257530           0.068
H228       H    0.6016940696    0.0013077931    0.4302289782           0.068
H229       H    0.5257264942    0.0057146273    0.1864733369           0.068
H230       H    0.4577855312    0.9700003190    0.1762932101           0.068
H231       H    0.5548163971    0.9858098953    0.8625077069           0.068
H232       H    0.5918479382    0.9843914560    0.3116163057           0.068
H233       H    0.4300113497    0.9851446163    0.1824053338           0.068
H234       H    0.3919098485    0.9851974302    0.7204340579           0.068
C465       C    0.2971701209    0.8125719268    0.7588097886           0.068
C466       C    0.3007871490    0.8035207421    0.8801728677           0.068
C467       C    0.3381076876    0.8264835796    0.9417576902           0.068
C468       C    0.3718111982    0.8584976019    0.8819794336           0.068
C469       C    0.3681941702    0.8675487865    0.7606163545           0.068
C470       C    0.3308736315    0.8445859490    0.6990315320           0.068
H471       H    0.2695432287    0.7955734626    0.7132210239           0.068
H472       H    0.3407861800    0.8197846516    0.0315921591           0.068
H473       H    0.3994380904    0.8754960660    0.9275681984           0.068
H474       H    0.3281951391    0.8512848770    0.6091970632           0.068
C455       C    0.3673751970    0.8303681506    0.2382553149           0.068
C456       C    0.3664696338    0.8658512351    0.2716051895           0.068
C457       C    0.3331419935    0.8705452210    0.2377261448           0.068
C458       C    0.3007199165    0.8397561225    0.1704972255           0.068
C459       C    0.3016254797    0.8042730380    0.1371473509           0.068
C460       C    0.3349531200    0.7995790521    0.1710263957           0.068
H461       H    0.3920463073    0.8268933818    0.2633346078           0.068
H462       H    0.3324706441    0.8968098226    0.2624105312           0.068
H463       H    0.2760488062    0.8432308913    0.1454179327           0.068
H464       H    0.3356244694    0.7733144505    0.1463420092           0.068
C445       C    0.1362958818    0.6421337617    0.9221593674           0.068
C446       C    0.1707453025    0.6733880536    0.8628771357           0.068
C447       C    0.1744046080    0.6722147253    0.7363872299           0.068
C448       C    0.1436144929    0.6397871050    0.6691795558           0.068
C449       C    0.1091650722    0.6085328131    0.7284617875           0.068
C450       C    0.1055057666    0.6097061414    0.8549516933           0.068
H451       H    0.1335870452    0.6430023294    0.0157947522           0.068
H452       H    0.1999040626    0.6953490040    0.6925027296           0.068
H453       H    0.1463233295    0.6389185373    0.5755441710           0.068
H454       H    0.0800063121    0.5865718627    0.8988361935           0.068
C435       C    0.1311082916    0.6574332338    0.0776062489           0.068
C436       C    0.1714969373    0.6742399831    0.1198519051           0.068
C437       C    0.1798699982    0.6573513681    0.2218967568           0.068
C438       C    0.1478544133    0.6236560039    0.2816959523           0.068
C439       C    0.1074657675    0.6068492546    0.2394502961           0.068
C440       C    0.0990927067    0.6237378696    0.1374054444           0.068
H441       H    0.1249100517    0.6699351956    0.0020665535           0.068
H442       H    0.2097657952    0.6697911298    0.2531700708           0.068
H443       H    0.1540526532    0.6111540422    0.3572356477           0.068
H444       H    0.0691969096    0.6112981080    0.1061321304           0.068
C425       C    0.3329696702    0.4735151019    0.9476761643           0.068
C426       C    0.3007871079    0.4722877971    0.8801705778           0.068
C427       C    0.3023078479    0.4727497482    0.7528863418           0.068
C428       C    0.3360111503    0.4744390040    0.6931076923           0.068
C429       C    0.3681937127    0.4756663088    0.7606132788           0.068
C430       C    0.3666729726    0.4752043577    0.8878975148           0.068
H431       H    0.3318439276    0.4731731381    0.0418995597           0.068
H432       H    0.2784864778    0.4718413161    0.7029149184           0.068
H433       H    0.3371368930    0.4747809677    0.5988842969           0.068
H434       H    0.3904943428    0.4761127897    0.9378689382           0.068
C415       C    0.3624652755    0.4656931233    0.1477309646           0.068
C416       C    0.3664703490    0.4756406257    0.2716021091           0.068
C417       C    0.3380531214    0.4839549453    0.3282447324           0.068
C418       C    0.3056308202    0.4823217625    0.2610162112           0.068
C419       C    0.3016257467    0.4723742602    0.1371450666           0.068
C420       C    0.3300429743    0.4640599405    0.0805024434           0.068
H421       H    0.3835014050    0.4595383672    0.1058007110           0.068
H422       H    0.3410167633    0.4913183143    0.4199355059           0.068
H423       H    0.2845946907    0.4884765186    0.3029464648           0.068
H424       H    0.3270793324    0.4566965715    0.9888116699           0.068
C405       C    0.1401911693    0.4766114443    0.9227522782           0.068
C406       C    0.1707452322    0.4723790005    0.8628758522           0.068
C407       C    0.1705091849    0.4697842031    0.7357917758           0.068
C408       C    0.1397190748    0.4714218495    0.6685841253           0.068
C409       C    0.1091650120    0.4756542934    0.7284605512           0.068
C410       C    0.1094010593    0.4782490908    0.8555446277           0.068
H411       H    0.1403659056    0.4785322684    0.0168275036           0.068
H412       H    0.1931251862    0.4666512810    0.6914674362           0.068
H413       H    0.1395443386    0.4695010255    0.5745088998           0.068
H414       H    0.0867850580    0.4813820129    0.8998689672           0.068
C395       C    0.1306396486    0.4425945148    0.0957026182           0.068
C396       C    0.1714970006    0.4722784055    0.1198506966           0.068
C397       C    0.1803387240    0.5036419220    0.2037979212           0.068
C398       C    0.1483230955    0.5053215479    0.2635970674           0.068
C399       C    0.1074657436    0.4756376572    0.2394489890           0.068
C400       C    0.0986240201    0.4442741407    0.1555017644           0.068
H401       H    0.1240944767    0.4193773662    0.0335598676           0.068
H402       H    0.2105814705    0.5256148249    0.2216748997           0.068
H403       H    0.1548682674    0.5285386965    0.3257398180           0.068
H404       H    0.0683812736    0.4223012377    0.1376247859           0.068
C385       C    0.4648771311    0.6388203272    0.8610299263           0.068
C386       C    0.5027885380    0.6744435922    0.8802814763           0.068
C387       C    0.5390272826    0.6763738829    0.8397642164           0.068
C388       C    0.5373546204    0.6426809086    0.7799954064           0.068
C389       C    0.4994432135    0.6070576435    0.7607438564           0.068
C390       C    0.4632044689    0.6051273529    0.8012611163           0.068
H391       H    0.4380510474    0.6373914107    0.8910232226           0.068
H392       H    0.5670903181    0.7027421582    0.8540128630           0.068
H393       H    0.5641807041    0.6441098251    0.7500021101           0.068
H394       H    0.4351414334    0.5787590776    0.7870124697           0.068
C375       C    0.4663910489    0.6014951862    0.1969344790           0.068
C376       C    0.4993786800    0.6083553236    0.2717375054           0.068
C377       C    0.5340182587    0.6476417767    0.2793090669           0.068
C378       C    0.5356702063    0.6800680925    0.2120776021           0.068
C379       C    0.5026825751    0.6732079551    0.1372745758           0.068
C380       C    0.4680429964    0.6339215019    0.1297030142           0.068
H381       H    0.4407487634    0.5724130066    0.1913295568           0.068
H382       H    0.5584366823    0.6527208693    0.3346782408           0.068
H383       H    0.5613124918    0.7091502720    0.2176825244           0.068
H384       H    0.4436245729    0.6288424093    0.0743338403           0.068
C365       C    0.4706049397    0.7946033602    0.7995890771           0.068
C366       C    0.5027886772    0.8033655568    0.8802860845           0.068
C367       C    0.5332999272    0.8441484278    0.9012153629           0.068
C368       C    0.5316274397    0.8761691022    0.8414476340           0.068
C369       C    0.4994437023    0.8674069055    0.7607506266           0.068
C370       C    0.4689324523    0.8266240345    0.7398213481           0.068
H371       H    0.4480186898    0.7644134427    0.7840959748           0.068
H372       H    0.5571231809    0.8506354653    0.9609476634           0.068
H373       H    0.5542136897    0.9063590197    0.8569407362           0.068
H374       H    0.4451091986    0.8201369971    0.6800890477           0.068
C355       C    0.5002140263    0.8336252923    0.3317863758           0.068
C356       C    0.4993781985    0.8660454424    0.2717441467           0.068
C357       C    0.5001944584    0.8676915838    0.1444695023           0.068
C358       C    0.5018465459    0.8369175752    0.0772370869           0.068
C359       C    0.5026823737    0.8044974251    0.1372793159           0.068
C360       C    0.5018661138    0.8028512837    0.2645539604           0.068
H361       H    0.4996097820    0.8324067201    0.4260026710           0.068
H362       H    0.4995758075    0.8916889157    0.1000224299           0.068
H363       H    0.5024507902    0.8381361474    0.9830207916           0.068
H364       H    0.5024847647    0.7788539518    0.3090010328           0.068
C345       C    0.8171094034    0.3290592191    0.0983880137           0.068
C346       C    0.8119483711    0.2900087453    0.1192107506           0.068
C347       C    0.8377746203    0.2851556568    0.2009561898           0.068
C348       C    0.8687619018    0.3193530420    0.2618788921           0.068
C349       C    0.8739229340    0.3584035157    0.2410561552           0.068
C350       C    0.8480966848    0.3632566043    0.1593107160           0.068
H351       H    0.7979912708    0.3326517652    0.0378751561           0.068
H352       H    0.8339552600    0.2562504813    0.2163716927           0.068
H353       H    0.8878800343    0.3157604959    0.3223917497           0.068
H354       H    0.8519160452    0.3921617798    0.1438952132           0.068
C335       C    0.8360759048    0.3558871391    0.7604769664           0.068
C336       C    0.8725811629    0.3568371483    0.7282922783           0.068
C337       C    0.8791974004    0.3248546090    0.7639673161           0.068
C338       C    0.8493083798    0.2919220605    0.8318270420           0.068
C339       C    0.8128031217    0.2909720513    0.8640117301           0.068
C340       C    0.8061868842    0.3229545906    0.8283366922           0.068
H341       H    0.8311781706    0.3795625253    0.7340681721           0.068
H342       H    0.9062186720    0.3255567903    0.7401454534           0.068
H343       H    0.8542061140    0.2682466743    0.8582358362           0.068
H344       H    0.7791656125    0.3222524093    0.8521585550           0.068
C325       C    0.6393715549    0.0908468733    0.8377627647           0.068
C326       C    0.6166342070    0.1011004463    0.7588848396           0.068
C327       C    0.6280893995    0.1423412531    0.7409521307           0.068
C328       C    0.6622819398    0.1733284869    0.8018973469           0.068
C329       C    0.6850192877    0.1630749139    0.8807752720           0.068
C330       C    0.6735640953    0.1218341071    0.8987079809           0.068
H331       H    0.6308917372    0.0603179643    0.8510376271           0.068
H332       H    0.6112596579    0.1499322165    0.6825664034           0.068
H333       H    0.6707617575    0.2038573958    0.7886224845           0.068
H334       H    0.6903938368    0.1142431436    0.9570937082           0.068
C315       C    0.6678791585    0.1739662295    0.2325857497           0.068
C316       C    0.6840417795    0.1622202933    0.1359707800           0.068
C317       C    0.6672636107    0.1205864613    0.1071965550           0.068
C318       C    0.6343228209    0.0906985655    0.1750372996           0.068
C319       C    0.6181602000    0.1024445017    0.2716522693           0.068
C320       C    0.6349383688    0.1440783337    0.3004264943           0.068
H321       H    0.6802993614    0.2047860791    0.2538861500           0.068
H322       H    0.6792265943    0.1118908435    0.0356815872           0.068
H323       H    0.6219026181    0.0598787159    0.1537368993           0.068
H324       H    0.6229753852    0.1527739515    0.3719414621           0.068
C305       C    0.4463903470    0.3220155768    0.7673476644           0.068
C306       C    0.4844549572    0.3582310281    0.7593214556           0.068
C307       C    0.5193077021    0.3602428209    0.8121611913           0.068
C308       C    0.5160958369    0.3260391624    0.8730271358           0.068
C309       C    0.4780312268    0.2898237111    0.8810533446           0.068
C310       C    0.4431784818    0.2878119183    0.8282136089           0.068
H311       H    0.4205902630    0.3205263277    0.7282325354           0.068
H312       H    0.5474840943    0.3870494329    0.8062218924           0.068
H313       H    0.5418959209    0.3275284115    0.9121422648           0.068
H314       H    0.4150020896    0.2610053063    0.8341529078           0.068
C295       C    0.4455272064    0.3240160225    0.2415332468           0.068
C296       C    0.4842059260    0.3569792506    0.2720882388           0.068
C297       C    0.5198365634    0.3570202798    0.2347357664           0.068
C298       C    0.5167884812    0.3240980807    0.1668283018           0.068
C299       C    0.4781097617    0.2911348526    0.1362733098           0.068
C300       C    0.4424791242    0.2910938235    0.1736257823           0.068
H301       H    0.4191512800    0.3239856502    0.2691837784           0.068
H302       H    0.5484675418    0.3814195454    0.2573512808           0.068
H303       H    0.5431644077    0.3241284530    0.1391777702           0.068
H304       H    0.4138481459    0.2666945578    0.1510102678           0.068
C285       C    0.4712585476    0.0956029741    0.8805081349           0.068
C286       C    0.4844549034    0.1012459815    0.7593254711           0.068
C287       C    0.4944394283    0.1378808171    0.6990080304           0.068
C288       C    0.4912275974    0.1688726453    0.7598732535           0.068
C289       C    0.4780312416    0.1632296380    0.8810559173           0.068
C290       C    0.4680467167    0.1265948024    0.9413733580           0.068
H291       H    0.4638674058    0.0684836802    0.9251587078           0.068
H292       H    0.5042076400    0.1420589105    0.6093071445           0.068
H293       H    0.4986187393    0.1959919392    0.7152226806           0.068
H294       H    0.4582785051    0.1224167090    0.0310742439           0.068
C275       C    0.4463821226    0.1363974575    0.2155708834           0.068
C276       C    0.4781093532    0.1619958934    0.1362757233           0.068
C277       C    0.5128843995    0.1577201087    0.1248889099           0.068
C278       C    0.5159322152    0.1278458882    0.1927972566           0.068
C279       C    0.4842049846    0.1022474524    0.2720924167           0.068
C280       C    0.4494299383    0.1065232370    0.2834792301           0.068
H281       H    0.4206395559    0.1395626488    0.2240000829           0.068
H282       H    0.5363698834    0.1766678446    0.0661945539           0.068
H283       H    0.5416747820    0.1246806969    0.1843680571           0.068
H284       H    0.4259444544    0.0875755011    0.3421735861           0.068
C265       C    0.6870277722    0.5318286830    0.8280490533           0.068
C266       C    0.6850189930    0.4969656019    0.8807714767           0.068
C267       C    0.6488178070    0.4588972480    0.8725476326           0.068
C268       C    0.6146254002    0.4556919752    0.8116013650           0.068
C269       C    0.6166341794    0.4905550562    0.7588789416           0.068
C270       C    0.6528353654    0.5286234101    0.7671027857           0.068
H271       H    0.7138260528    0.5600091528    0.8341368340           0.068
H272       H    0.6473297701    0.4330905145    0.9115723228           0.068
H273       H    0.5878271197    0.4275115054    0.8055135843           0.068
H274       H    0.6543234023    0.5544301436    0.7280780955           0.068
C255       C    0.6486309912    0.5290308868    0.2284759502           0.068
C256       C    0.6181607683    0.4907382479    0.2716466485           0.068
C257       C    0.6206312553    0.4554980801    0.2469773786           0.068
C258       C    0.6535719652    0.4585505513    0.1791374103           0.068
C259       C    0.6840421881    0.4968431902    0.1359667120           0.068
C260       C    0.6815717011    0.5320833580    0.1606359820           0.068
H261       H    0.6468021891    0.5551177642    0.2467376176           0.068
H262       H    0.5980773828    0.4271528896    0.2789313953           0.068
H263       H    0.6554007673    0.4324636738    0.1608757430           0.068
H264       H    0.7041255736    0.5604285484    0.1286819653           0.068
C245       C    0.8433975702    0.4962300384    0.0530049507           0.068
C246       C    0.8119483498    0.4969608818    0.1192099852           0.068
C247       C    0.8114864098    0.4944816791    0.2463383430           0.068
C248       C    0.8424736903    0.4912716330    0.3072616664           0.068
C249       C    0.8739229107    0.4905407896    0.2410566319           0.068
C250       C    0.8743848507    0.4930199923    0.1139282741           0.068
H251       H    0.8437395257    0.4980652923    0.9588969456           0.068
H252       H    0.7882077940    0.4950225683    0.2953470975           0.068
H253       H    0.8421317348    0.4894363790    0.4013696715           0.068
H254       H    0.8976634665    0.4924791031    0.0649195197           0.068
C235       C    0.8113583710    0.4968272019    0.7367358592           0.068
C236       C    0.8128029051    0.4968526523    0.8640111988           0.068
C237       C    0.8441366599    0.4938349017    0.9234271955           0.068
C238       C    0.8740258806    0.4907917007    0.8555678527           0.068
C239       C    0.8725813465    0.4907662502    0.7282925131           0.068
C240       C    0.8412475917    0.4937840008    0.6688765163           0.068
H241       H    0.7881632538    0.4990611211    0.6927525888           0.068
H242       H    0.8452068905    0.4938536446    0.0176378299           0.068
H243       H    0.8972209978    0.4885577814    0.8995511230           0.068
H244       H    0.8401773611    0.4937652580    0.5746658819           0.068
loop_
_geom_bond_atom_site_label_1
_geom_bond_atom_site_label_2
_geom_bond_distance
_geom_bond_site_symmetry_2
_ccdc_geom_bond_type
C1           C2 1.540       .   A
C1           C6 1.540       .   A
C1         C236 1.593       .   S
C2           C3 1.540       .   A
C2         C246 1.458       .   S
C3           C4 1.540       .   A
C3           H8 1.140       .   S
C4           C5 1.540       .   A
C4         C259 1.593       .   S
C5           C6 1.540       .   A
C5         C266 1.458       .   S
C6           H7 1.140       .   S
C9          C10 1.540       .   A
C9          C14 1.540       .   A
C9         C276 1.585       .   S
C10         C11 1.540       .   A
C10        C289 1.467       .   S
C11         C12 1.540       .   A
C11         H16 1.140       .   S
C12         C13 1.540       .   A
C12        C309 1.467       .   S
C13         C14 1.540       .   A
C13        C299 1.585       .   S
C14         H15 1.140       .   S
C17         C18 1.540       .   A
C17         C22 1.540       .   A
C17        C316 1.593       .   S
C18         C19 1.540       .   A
C18        C329 1.458       .   S
C19         C20 1.540       .   A
C19         H24 1.140       .   S
C20         C21 1.540       .   A
C20        C339 1.593       .   S
C21         C22 1.540       .   A
C21        C346 1.458       .   S
C22         H23 1.140       .   S
C25         C26 1.540       .   A
C25         C30 1.540       .   A
C25        C359 1.627       .   S
C26         C27 1.540       .   A
C26        C366 1.510       .   S
C27         C28 1.540       .   A
C27         H32 1.140       .   S
C28         C29 1.540       .   A
C28        C386 1.510       .   S
C29         C30 1.540       .   A
C29        C379 1.627       .   S
C30         H31 1.140       .   S
C33         C34 1.540       .   A
C33         C38 1.540       .   A
C33        C406 1.635       .   S
C34         C35 1.540       .   A
C34        C396 1.501       .   S
C35         C36 1.540       .   A
C35         H40 1.140       .   S
C36         C37 1.540       .   A
C36        C419 1.635       .   S
C37         C38 1.540       .   A
C37        C426 1.501       .   S
C38         H39 1.140       .   S
C41         C42 1.540       .   A
C41         C46 1.540       .   A
C41        C446 1.635       .   S
C42         C43 1.540       .   A
C42        C436 1.501       .   S
C43         C44 1.540       .   A
C43         H48 1.140       .   S
C44         C45 1.540       .   A
C44        C459 1.635       .   S
C45         C46 1.540       .   A
C45        C466 1.501       .   S
C46         H47 1.140       .   S
O49        Zr61 2.145       .   S
O49         C51 1.423       .   A
O50        Zr87 2.139       .   S
O50         C51 1.420       .   A
C51        C336 1.593   1_556   S
O52        Zr64 2.146       .   S
O52         C54 1.423       .   A
O53        Zr88 2.139       .   S
O53         C54 1.420       .   A
C54        C449 1.635   1_656   S
O55        Zr64 2.145       .   S
O55         C57 1.423       .   A
O56        Zr87 2.139       .   S
O56         C57 1.420       .   A
C57        C239 1.593   1_556   S
O58        Zr61 2.145       .   S
O58         C60 1.423       .   A
O59        Zr88 2.139       .   S
O59         C60 1.420       .   A
C60        C409 1.635   1_656   S
Zr61        O62 2.104       .   S
Zr61        O63 2.134       .   S
Zr61        O67 2.082       .   S
Zr61        O68 2.082       .   S
Zr61        O91 2.084       .   S
Zr61        O93 2.084       .   S
O62        H105 0.990       .   S
O63        H104 0.987       .   S
O63        H108 0.992       .   S
Zr64        O65 2.134       .   S
Zr64        O66 2.123       .   S
Zr64        O68 2.081       .   S
Zr64        O67 2.081       .   S
Zr64        O92 2.084       .   S
Zr64        O94 2.084       .   S
O65        H106 0.987       .   S
O65        H109 0.992       .   S
O66         H99 0.989       .   S
O67        Zr87 2.087       .   S
O68        Zr88 2.087       .   S
O68         H95 1.110       .   S
O69        Zr81 2.146       .   S
O69         C71 1.423       .   A
O70        Zr88 2.139       .   S
O70         C71 1.420       .   A
C71        C399 1.501   1_655   S
O72        Zr84 2.145       .   S
O72         C74 1.423       .   A
O73        Zr87 2.139       .   S
O73         C74 1.420       .   A
C74        C249 1.458       .   S
O75        Zr84 2.145       .   S
O75         C77 1.423       .   A
O76        Zr88 2.139       .   S
O76         C77 1.420       .   A
C77        C439 1.501   1_655   S
O78        Zr81 2.145       .   S
O78         C80 1.423       .   A
O79        Zr87 2.139       .   S
O79         C80 1.420       .   A
C80        C349 1.458       .   S
Zr81        O82 2.135       .   S
Zr81        O83 2.121       .   S
Zr81        O89 2.081       .   S
Zr81        O90 2.081       .   S
Zr81        O93 2.084       .   S
Zr81        O91 2.084       .   S
O82        H102 0.987       .   S
O82        H107 0.992       .   S
O83        H103 0.990       .   S
Zr84        O85 2.119       .   S
Zr84        O86 2.131       .   S
Zr84        O90 2.082       .   S
Zr84        O89 2.082       .   S
Zr84        O94 2.084       .   S
Zr84        O92 2.084       .   S
O85        H101 0.990       .   S
O86        H100 0.990       .   S
O86        H110 0.992       .   S
Zr87        O90 2.087       .   S
Zr87        O92 2.087       .   S
Zr87        O93 2.087       .   S
Zr88        O89 2.087       .   S
Zr88        O91 2.087       .   S
Zr88        O94 2.087       .   S
O89         H97 1.110       .   S
O92         H96 1.108       .   S
O93         H98 1.108       .   S
O111      Zr123 2.145       .   S
O111       C113 1.423       .   A
O112      Zr149 2.139       .   S
O112       C113 1.420       .   A
C113       C296 1.585       .   S
O114      Zr126 2.146       .   S
O114       C116 1.423       .   A
O115      Zr150 2.139       .   S
O115       C116 1.420       .   A
C116       C376 1.627       .   S
O117      Zr126 2.145       .   S
O117       C119 1.423       .   A
O118      Zr149 2.139       .   S
O118       C119 1.420       .   A
C119       C256 1.593       .   S
O120      Zr123 2.145       .   S
O120       C122 1.423       .   A
O121      Zr150 2.139       .   S
O121       C122 1.420       .   A
C122       C416 1.635       .   S
Zr123      O124 2.104       .   S
Zr123      O125 2.134       .   S
Zr123      O129 2.082       .   S
Zr123      O130 2.082       .   S
Zr123      O153 2.084       .   S
Zr123      O155 2.084       .   S
O124       H167 0.990       .   S
O125       H166 0.987       .   S
O125       H170 0.992       .   S
Zr126      O127 2.134       .   S
Zr126      O128 2.123       .   S
Zr126      O130 2.081       .   S
Zr126      O129 2.081       .   S
Zr126      O154 2.084       .   S
Zr126      O156 2.084       .   S
O127       H168 0.987       .   S
O127       H171 0.992       .   S
O128       H161 0.989       .   S
O129      Zr149 2.087       .   S
O130      Zr150 2.087       .   S
O130       H157 1.110       .   S
O131      Zr143 2.146       .   S
O131       C133 1.423       .   A
O132      Zr150 2.139       .   S
O132       C133 1.420       .   A
C133       C429 1.501   1_556   S
O134      Zr146 2.145       .   S
O134       C136 1.423       .   A
O135      Zr149 2.139       .   S
O135       C136 1.420       .   A
C136       C269 1.458   1_556   S
O137      Zr146 2.145       .   S
O137       C139 1.423       .   A
O138      Zr150 2.139       .   S
O138       C139 1.420       .   A
C139       C389 1.510   1_556   S
O140      Zr143 2.145       .   S
O140       C142 1.423       .   A
O141      Zr149 2.139       .   S
O141       C142 1.420       .   A
C142       C306 1.467   1_556   S
Zr143      O144 2.135       .   S
Zr143      O145 2.121       .   S
Zr143      O151 2.081       .   S
Zr143      O152 2.081       .   S
Zr143      O155 2.084       .   S
Zr143      O153 2.084       .   S
O144       H164 0.987       .   S
O144       H169 0.992       .   S
O145       H165 0.990       .   S
Zr146      O147 2.119       .   S
Zr146      O148 2.131       .   S
Zr146      O152 2.082       .   S
Zr146      O151 2.082       .   S
Zr146      O156 2.084       .   S
Zr146      O154 2.084       .   S
O147       H163 0.990       .   S
O148       H162 0.990       .   S
O148       H172 0.992       .   S
Zr149      O152 2.087       .   S
Zr149      O154 2.087       .   S
Zr149      O155 2.087       .   S
Zr150      O151 2.087       .   S
Zr150      O153 2.087       .   S
Zr150      O156 2.087       .   S
O151       H159 1.110       .   S
O154       H158 1.108       .   S
O155       H160 1.108       .   S
O173      Zr185 2.145       .   S
O173       C175 1.423       .   A
O174      Zr211 2.139       .   S
O174       C175 1.420       .   A
C175       C319 1.593   1_565   S
O176      Zr188 2.146       .   S
O176       C178 1.423       .   A
O177      Zr212 2.139       .   S
O177       C178 1.420       .   A
C178       C456 1.635       .   S
O179      Zr188 2.145       .   S
O179       C181 1.423       .   A
O180      Zr211 2.139       .   S
O180       C181 1.420       .   A
C181       C279 1.585   1_565   S
O182      Zr185 2.145       .   S
O182       C184 1.423       .   A
O183      Zr212 2.139       .   S
O183       C184 1.420       .   A
C184       C356 1.627       .   S
Zr185      O186 2.104       .   S
Zr185      O187 2.134       .   S
Zr185      O191 2.082       .   S
Zr185      O192 2.082       .   S
Zr185      O215 2.084       .   S
Zr185      O217 2.084       .   S
O186       H229 0.990       .   S
O187       H228 0.987       .   S
O187       H232 0.992       .   S
Zr188      O189 2.134       .   S
Zr188      O190 2.123       .   S
Zr188      O192 2.081       .   S
Zr188      O191 2.081       .   S
Zr188      O216 2.084       .   S
Zr188      O218 2.084       .   S
O189       H230 0.987       .   S
O189       H233 0.992       .   S
O190       H223 0.989       .   S
O191      Zr211 2.087       .   S
O192      Zr212 2.087       .   S
O192       H219 1.110       .   S
O193      Zr205 2.146       .   S
O193       C195 1.423       .   A
O194      Zr212 2.139       .   S
O194       C195 1.420       .   A
C195       C369 1.510   1_556   S
O196      Zr208 2.145       .   S
O196       C198 1.423       .   A
O197      Zr211 2.139       .   S
O197       C198 1.420       .   A
C198       C286 1.467   1_566   S
O199      Zr208 2.145       .   S
O199       C201 1.423       .   A
O200      Zr212 2.139       .   S
O200       C201 1.420       .   A
C201       C469 1.501   1_556   S
O202      Zr205 2.145       .   S
O202       C204 1.423       .   A
O203      Zr211 2.139       .   S
O203       C204 1.420       .   A
C204       C326 1.458   1_566   S
Zr205      O206 2.135       .   S
Zr205      O207 2.121       .   S
Zr205      O213 2.081       .   S
Zr205      O214 2.081       .   S
Zr205      O217 2.084       .   S
Zr205      O215 2.084       .   S
O206       H226 0.987       .   S
O206       H231 0.992       .   S
O207       H227 0.990       .   S
Zr208      O209 2.119       .   S
Zr208      O210 2.131       .   S
Zr208      O214 2.082       .   S
Zr208      O213 2.082       .   S
Zr208      O218 2.084       .   S
Zr208      O216 2.084       .   S
O209       H225 0.990       .   S
O210       H224 0.990       .   S
O210       H234 0.992       .   S
Zr211      O214 2.087       .   S
Zr211      O216 2.087       .   S
Zr211      O217 2.087       .   S
Zr212      O213 2.087       .   S
Zr212      O215 2.087       .   S
Zr212      O218 2.087       .   S
O213       H221 1.110       .   S
O216       H220 1.108       .   S
O217       H222 1.108       .   S
C465       C466 1.540       .   A
C465       C470 1.540       .   A
C465       H471 1.140       .   S
C466       C467 1.540       .   A
C467       C468 1.540       .   A
C467       H472 1.140       .   S
C468       C469 1.540       .   A
C468       H473 1.140       .   S
C469       C470 1.540       .   A
C470       H474 1.140       .   S
C455       C456 1.540       .   A
C455       C460 1.540       .   A
C455       H461 1.140       .   S
C456       C457 1.540       .   A
C457       C458 1.540       .   A
C457       H462 1.140       .   S
C458       C459 1.540       .   A
C458       H463 1.140       .   S
C459       C460 1.540       .   A
C460       H464 1.140       .   S
C445       C446 1.540       .   A
C445       C450 1.540       .   A
C445       H451 1.140       .   S
C446       C447 1.540       .   A
C447       C448 1.540       .   A
C447       H452 1.140       .   S
C448       C449 1.540       .   A
C448       H453 1.140       .   S
C449       C450 1.540       .   A
C450       H454 1.140       .   S
C435       C436 1.540       .   A
C435       C440 1.540       .   A
C435       H441 1.140       .   S
C436       C437 1.540       .   A
C437       C438 1.540       .   A
C437       H442 1.140       .   S
C438       C439 1.540       .   A
C438       H443 1.140       .   S
C439       C440 1.540       .   A
C440       H444 1.140       .   S
C425       C426 1.540       .   A
C425       C430 1.540       .   A
C425       H431 1.140       .   S
C426       C427 1.540       .   A
C427       C428 1.540       .   A
C427       H432 1.140       .   S
C428       C429 1.540       .   A
C428       H433 1.140       .   S
C429       C430 1.540       .   A
C430       H434 1.140       .   S
C415       C416 1.540       .   A
C415       C420 1.540       .   A
C415       H421 1.140       .   S
C416       C417 1.540       .   A
C417       C418 1.540       .   A
C417       H422 1.140       .   S
C418       C419 1.540       .   A
C418       H423 1.140       .   S
C419       C420 1.540       .   A
C420       H424 1.140       .   S
C405       C406 1.540       .   A
C405       C410 1.540       .   A
C405       H411 1.140       .   S
C406       C407 1.540       .   A
C407       C408 1.540       .   A
C407       H412 1.140       .   S
C408       C409 1.540       .   A
C408       H413 1.140       .   S
C409       C410 1.540       .   A
C410       H414 1.140       .   S
C395       C396 1.540       .   A
C395       C400 1.540       .   A
C395       H401 1.140       .   S
C396       C397 1.540       .   A
C397       C398 1.540       .   A
C397       H402 1.140       .   S
C398       C399 1.540       .   A
C398       H403 1.140       .   S
C399       C400 1.540       .   A
C400       H404 1.140       .   S
C385       C386 1.540       .   A
C385       C390 1.540       .   A
C385       H391 1.140       .   S
C386       C387 1.540       .   A
C387       C388 1.540       .   A
C387       H392 1.140       .   S
C388       C389 1.540       .   A
C388       H393 1.140       .   S
C389       C390 1.540       .   A
C390       H394 1.140       .   S
C375       C376 1.540       .   A
C375       C380 1.540       .   A
C375       H381 1.140       .   S
C376       C377 1.540       .   A
C377       C378 1.540       .   A
C377       H382 1.140       .   S
C378       C379 1.540       .   A
C378       H383 1.140       .   S
C379       C380 1.540       .   A
C380       H384 1.140       .   S
C365       C366 1.540       .   A
C365       C370 1.540       .   A
C365       H371 1.140       .   S
C366       C367 1.540       .   A
C367       C368 1.540       .   A
C367       H372 1.140       .   S
C368       C369 1.540       .   A
C368       H373 1.140       .   S
C369       C370 1.540       .   A
C370       H374 1.140       .   S
C355       C356 1.540       .   A
C355       C360 1.540       .   A
C355       H361 1.140       .   S
C356       C357 1.540       .   A
C357       C358 1.540       .   A
C357       H362 1.140       .   S
C358       C359 1.540       .   A
C358       H363 1.140       .   S
C359       C360 1.540       .   A
C360       H364 1.140       .   S
C345       C346 1.540       .   A
C345       C350 1.540       .   A
C345       H351 1.140       .   S
C346       C347 1.540       .   A
C347       C348 1.540       .   A
C347       H352 1.140       .   S
C348       C349 1.540       .   A
C348       H353 1.140       .   S
C349       C350 1.540       .   A
C350       H354 1.140       .   S
C335       C336 1.540       .   A
C335       C340 1.540       .   A
C335       H341 1.140       .   S
C336       C337 1.540       .   A
C337       C338 1.540       .   A
C337       H342 1.140       .   S
C338       C339 1.540       .   A
C338       H343 1.140       .   S
C339       C340 1.540       .   A
C340       H344 1.140       .   S
C325       C326 1.540       .   A
C325       C330 1.540       .   A
C325       H331 1.140       .   S
C326       C327 1.540       .   A
C327       C328 1.540       .   A
C327       H332 1.140       .   S
C328       C329 1.540       .   A
C328       H333 1.140       .   S
C329       C330 1.540       .   A
C330       H334 1.140       .   S
C315       C316 1.540       .   A
C315       C320 1.540       .   A
C315       H321 1.140       .   S
C316       C317 1.540       .   A
C317       C318 1.540       .   A
C317       H322 1.140       .   S
C318       C319 1.540       .   A
C318       H323 1.140       .   S
C319       C320 1.540       .   A
C320       H324 1.140       .   S
C305       C306 1.540       .   A
C305       C310 1.540       .   A
C305       H311 1.140       .   S
C306       C307 1.540       .   A
C307       C308 1.540       .   A
C307       H312 1.140       .   S
C308       C309 1.540       .   A
C308       H313 1.140       .   S
C309       C310 1.540       .   A
C310       H314 1.140       .   S
C295       C296 1.540       .   A
C295       C300 1.540       .   A
C295       H301 1.140       .   S
C296       C297 1.540       .   A
C297       C298 1.540       .   A
C297       H302 1.140       .   S
C298       C299 1.540       .   A
C298       H303 1.140       .   S
C299       C300 1.540       .   A
C300       H304 1.140       .   S
C285       C286 1.540       .   A
C285       C290 1.540       .   A
C285       H291 1.140       .   S
C286       C287 1.540       .   A
C287       C288 1.540       .   A
C287       H292 1.140       .   S
C288       C289 1.540       .   A
C288       H293 1.140       .   S
C289       C290 1.540       .   A
C290       H294 1.140       .   S
C275       C276 1.540       .   A
C275       C280 1.540       .   A
C275       H281 1.140       .   S
C276       C277 1.540       .   A
C277       C278 1.540       .   A
C277       H282 1.140       .   S
C278       C279 1.540       .   A
C278       H283 1.140       .   S
C279       C280 1.540       .   A
C280       H284 1.140       .   S
C265       C266 1.540       .   A
C265       C270 1.540       .   A
C265       H271 1.140       .   S
C266       C267 1.540       .   A
C267       C268 1.540       .   A
C267       H272 1.140       .   S
C268       C269 1.540       .   A
C268       H273 1.140       .   S
C269       C270 1.540       .   A
C270       H274 1.140       .   S
C255       C256 1.540       .   A
C255       C260 1.540       .   A
C255       H261 1.140       .   S
C256       C257 1.540       .   A
C257       C258 1.540       .   A
C257       H262 1.140       .   S
C258       C259 1.540       .   A
C258       H263 1.140       .   S
C259       C260 1.540       .   A
C260       H264 1.140       .   S
C245       C246 1.540       .   A
C245       C250 1.540       .   A
C245       H251 1.140       .   S
C246       C247 1.540       .   A
C247       C248 1.540       .   A
C247       H252 1.140       .   S
C248       C249 1.540       .   A
C248       H253 1.140       .   S
C249       C250 1.540       .   A
C250       H254 1.140       .   S
C235       C236 1.540       .   A
C235       C240 1.540       .   A
C235       H241 1.140       .   S
C236       C237 1.540       .   A
C237       C238 1.540       .   A
C237       H242 1.140       .   S
C238       C239 1.540       .   A
C238       H243 1.140       .   S
C239       C240 1.540       .   A
C240       H244 1.140       .   S
