data_csq_v1-4c_pyrene_Ch_v2-8c_Zr_1_Ch_1-1B_4H_Ch
_audit_creation_date              2024-08-05
_audit_creation_method            'tobacco_3.0'
_symmetry_space_group_name_H-M    'P1'
_symmetry_Int_Tables_number       1
_symmetry_cell_setting            triclinic
loop_
_symmetry_equiv_pos_as_xyz
  x,y,z
_cell_length_a                    48.94179627725367
_cell_length_b                    48.94759717712423
_cell_length_c                    13.00429411546029
_cell_angle_alpha                 89.99933687133763
_cell_angle_beta                  89.99963663656223
_cell_angle_gamma                 120.00489428541188
loop_
_atom_site_label
_atom_site_type_symbol
_atom_site_fract_x
_atom_site_fract_y
_atom_site_fract_z
_atom_site_charge
C1         C    0.8123188857    0.4999997456    0.8922621976         -0.8918
C2         C    0.8286457328    0.4999996789    0.9934890958         -0.8304
C3         C    0.8135157200    0.4999997407    0.0973233137         -0.8916
C4         C    0.7820588601    0.4999998691    0.0999306334         -0.6821
C5         C    0.7657284299    0.4999999358    0.9986963402         -0.8095
C6         C    0.7808584427    0.4999998740    0.8948621223         -0.6841
C7         C    0.7645315956    0.4999999407    0.7936352240         -0.9096
C8         C    0.7330711526    0.5000000691    0.7962351487         -0.9096
C9         C    0.7179411399    0.5000001309    0.9000693666         -0.6841
C10        C    0.7342715701    0.5000000642    0.0013036598         -0.8095
C11        C    0.7669288474    0.4999999309    0.2037648513         -0.9109
C12        C    0.7354684044    0.5000000593    0.2063647760         -0.9109
C13        C    0.7191415573    0.5000001260    0.1051378777         -0.6821
C14        C    0.6876811143    0.5000002544    0.1077378024         -0.8916
C15        C    0.6713542672    0.5000003211    0.0065109042         -0.8304
C16        C    0.6864842800    0.5000002593    0.9026766863         -0.8918
H17        H    0.7757317349    0.4999998949    0.7167709328         -0.7095
H18        H    0.7209852312    0.5000001185    0.7213013354         -0.7095
H19        H    0.7790147688    0.4999998815    0.2786986646         -0.7078
H20        H    0.7242682651    0.5000001051    0.2832290672         -0.7078
H21        H    0.8519317936    0.4999995838    0.9915586179         -0.7433
H22        H    0.6480682064    0.5000004162    0.0084413821         -0.7433
C23        C    0.4709058515    0.1580003954    0.9019158468         -0.8918
C24        C    0.4709058119    0.1422700829    0.0044690480         -0.8304
C25        C    0.4709058515    0.1580006288    0.1070264557         -0.8916
C26        C    0.4709059309    0.1894614871    0.1070306622         -0.6821
C27        C    0.4709059705    0.2051953382    0.0044697714         -0.8095
C28        C    0.4709059309    0.1894647923    0.9019123637         -0.6841
C29        C    0.4709059705    0.2051951048    0.7993591625         -0.9096
C30        C    0.4709060499    0.2366595017    0.7993556794         -0.9096
C31        C    0.4709060896    0.2523900476    0.9019130871         -0.6841
C32        C    0.4709060499    0.2366561965    0.0044739779         -0.8095
C33        C    0.4709059705    0.2051920329    0.2095880699         -0.9109
C34        C    0.4709060499    0.2366564298    0.2095845867         -0.9109
C35        C    0.4709060895    0.2523867423    0.1070313856         -0.6821
C36        C    0.4709061689    0.2838511392    0.1070279024         -0.8916
C37        C    0.4709062086    0.2995814517    0.0044747013         -0.8304
C38        C    0.4709061689    0.2838509059    0.9019172936         -0.8918
H39        H    0.4709059412    0.1935504150    0.7234400426         -0.7095
H40        H    0.4709060792    0.2483038349    0.7234400728         -0.7095
H41        H    0.4709059412    0.1935476997    0.2855036764         -0.7078
H42        H    0.4709060792    0.2483011196    0.2855037067         -0.7078
H43        H    0.4709057531    0.1189810600    0.0044655346         -0.7433
H44        H    0.4709062673    0.3228704747    0.0044782146         -0.7433
C45        C    0.6876762973    0.1586269309    0.1077358952         -0.8918
C46        C    0.6713494429    0.1423001244    0.0065090450         -0.8304
C47        C    0.6864800292    0.1574306663    0.9026747825         -0.8916
C48        C    0.7179374699    0.1888880145    0.9000673701         -0.6821
C49        C    0.7342679074    0.2052184040    0.0013016153         -0.8095
C50        C    0.7191373211    0.1900878622    0.1051358778         -0.6841
C51        C    0.7354641755    0.2064146686    0.2063627279         -0.9096
C52        C    0.7669251993    0.2378756000    0.2037627105         -0.9096
C53        C    0.7820557856    0.2530061418    0.0999284480         -0.6841
C54        C    0.7657253481    0.2366757523    0.9986942029         -0.8095
C55        C    0.7330680562    0.2040185563    0.7962331076         -0.9109
C56        C    0.7645290800    0.2354794877    0.7936330902         -0.9109
C57        C    0.7808559344    0.2518062941    0.8948599404         -0.6821
C58        C    0.8123169582    0.2832672255    0.8922599230         -0.8916
C59        C    0.8286438126    0.2995940319    0.9934867731         -0.8304
C60        C    0.8135132263    0.2844634901    0.0973210356         -0.8918
H61        H    0.7242636117    0.1952141377    0.2832270521         -0.7095
H62        H    0.7790111262    0.2499614913    0.2786964882         -0.7095
H63        H    0.7209821293    0.1919326650    0.7212993300         -0.7078
H64        H    0.7757296439    0.2466800187    0.7167687660         -0.7078
H65        H    0.6480629522    0.1190137021    0.0084395916         -0.7433
H66        H    0.8519303033    0.3228804542    0.9915562265         -0.7433
C67        C    0.5060469139    0.8014216932    0.1068466995         -0.8918
C68        C    0.5060468747    0.8171518749    0.0042933000         -0.8304
C69        C    0.5060469139    0.8014212773    0.9017360907         -0.8916
C70        C    0.5060469925    0.7699604979    0.9017322809         -0.6821
C71        C    0.5060470318    0.7542267776    0.0042933701         -0.8095
C72        C    0.5060469925    0.7699573752    0.1068505794         -0.6841
C73        C    0.5060470318    0.7542271935    0.2094039790         -0.9096
C74        C    0.5060471104    0.7227628756    0.2094078589         -0.9096
C75        C    0.5060471496    0.7070322779    0.1068506496         -0.6841
C76        C    0.5060471103    0.7227659982    0.0042895604         -0.8095
C77        C    0.5060470318    0.7542299002    0.7991750716         -0.9109
C78        C    0.5060471103    0.7227655823    0.7991789515         -0.9109
C79        C    0.5060471496    0.7070354006    0.9017323511         -0.6821
C80        C    0.5060472282    0.6755710826    0.9017362310         -0.8916
C81        C    0.5060472675    0.6598409009    0.0042896305         -0.8304
C82        C    0.5060472282    0.6755714986    0.1068468398         -0.8918
H83        H    0.5060470027    0.7658719217    0.2853229521         -0.7095
H84        H    0.5060471394    0.7111186392    0.2853236123         -0.7095
H85        H    0.5060470027    0.7658741366    0.7232593182          -0.691
H86        H    0.5060471394    0.7111208541    0.7232599784         -0.7078
H87        H    0.5060468165    0.8404408395    0.0042965197         -0.7433
H88        H    0.5060473256    0.6365519364    0.0042864108         -0.7433
C89        C    0.1701426840    0.4649343450    0.8923087894         -0.8918
C90        C    0.1538201881    0.4649342790    0.9935465569         -0.8304
C91        C    0.1689547932    0.4649343402    0.0973706994         -0.8916
C92        C    0.2004118943    0.4649344674    0.0999570744         -0.6821
C93        C    0.2167379729    0.4649345334    0.9987119096         -0.8095
C94        C    0.2016033678    0.4649344722    0.8948877670         -0.6841
C95        C    0.2179258638    0.4649345382    0.7936499995         -0.9096
C96        C    0.2493865476    0.4649346654    0.7962289772         -0.9096
C97        C    0.2645211527    0.4649347266    0.9000531197         -0.6841
C98        C    0.2481950740    0.4649346606    0.0012982846         -0.8095
C99        C    0.2155464994    0.4649345286    0.2037812170         -0.9109
C100       C    0.2470071832    0.4649346557    0.2063601947         -0.9109
C101       C    0.2633296791    0.4649347217    0.1051224272         -0.6821
C102       C    0.2947903629    0.4649348489    0.1077014048         -0.8916
C103       C    0.3111128589    0.4649349149    0.0064636373         -0.8304
C104       C    0.2959782537    0.4649348537    0.9026394948         -0.8918
H105       H    0.2067223249    0.4649344929    0.7167931667         -0.7095
H106       H    0.2614692481    0.4649347142    0.7212871180         -0.7095
H107       H    0.2034637989    0.4649344797    0.2787230762         -0.7078
H108       H    0.2582107220    0.4649347010    0.2832170274         -0.7078
H109       H    0.1305339487    0.4649341849    0.9916315833         -0.7433
H110       H    0.3343990982    0.4649350091    0.0083786109         -0.7433
C111       C    0.1701429504    0.6761504099    0.8923039680         -0.8918
C112       C    0.1538200560    0.6598274680    0.9935419554         -0.8304
C113       C    0.1689546106    0.6749620667    0.0973658940         -0.8916
C114       C    0.2004120596    0.7064196073    0.0999518452         -0.6821
C115       C    0.2167385369    0.7227461320    0.9987064604         -0.8095
C116       C    0.2016039822    0.7076115333    0.8948825218         -0.6841
C117       C    0.2179268767    0.7239344753    0.7936445343         -0.9096
C118       C    0.2493879085    0.7553955987    0.7962230881         -0.9096
C119       C    0.2645224631    0.7705301973    0.9000470267         -0.6841
C120       C    0.2481959859    0.7542036726    0.0012924116         -0.8095
C121       C    0.2155466142    0.7215542059    0.2037757839         -0.9109
C122       C    0.2470076461    0.7530153293    0.2063543377         -0.9109
C123       C    0.2633305405    0.7693382712    0.1051163502         -0.6821
C124       C    0.2947915724    0.8007993946    0.1076949040         -0.8916
C125       C    0.3111144668    0.8171223365    0.0064569166         -0.8304
C126       C    0.2959799122    0.8019877379    0.9026329779         -0.8918
H127       H    0.2067233752    0.7127309412    0.7167878525         -0.7095
H128       H    0.2614709040    0.7674786293    0.7212810661         -0.7095
H129       H    0.2034636188    0.7094711753    0.2787178059         -0.7078
H130       H    0.2582111475    0.7642188634    0.2832110195         -0.7078
H131       H    0.1305335590    0.6365409033    0.9916272956         -0.7433
H132       H    0.3344009637    0.8404089012    0.0083715764         -0.7433
O133       O    0.9471706882    0.5106657261    0.6657894019          0.2138
O134       O    0.9079769722    0.4632420830    0.5610053582          0.2138
C135       C    0.9164360166    0.4890783084    0.6284287432          0.2138
O136       O    0.0320685520    0.5519462226    0.2835228113          0.2138
O137       O    0.0702116628    0.5421204879    0.3883165622          0.2138
C138       C    0.0625582096    0.5601226897    0.3208817464          0.2138
O139       O    0.9471721825    0.5106703929    0.2835232811          0.2138
O140       O    0.9079776402    0.4632438064    0.3883174601          0.2138
C141       C    0.9164371811    0.4890799969    0.3208825551          0.2138
O142       O    0.0320670577    0.5519415558    0.6657889320          0.2138
O143       O    0.0702109948    0.5421187645    0.5610044603          0.2138
C144       C    0.0625570452    0.5601210012    0.6284279345          0.2138
Zr145     Zr    0.9893024209    0.5140977955    0.6029118164             1.0
O146       O    0.9900933869    0.5573895569    0.5924647025          0.2138
O147       O    0.9933565573    0.5151385936    0.7664184925          0.2138
Zr148     Zr    0.9893033922    0.5140992038    0.3464052085             1.0
O149       O    0.9855696145    0.5557109407    0.3467822036          0.2138
O150       O    0.9945093771    0.5131063962    0.1846110997          0.2138
O151       O    0.9607371521    0.5057779979    0.4746579888          0.2138
O152       O    0.0180739321    0.5336546101    0.4746576715          0.2138
O153       O    0.0301854531    0.4489510929    0.6657907175          0.2138
O154       O    0.0693752771    0.4963753854    0.5609965386          0.2138
C155       C    0.0609204545    0.4705414889    0.6284314436          0.2138
O156       O    0.9452905779    0.4076799300    0.2835250667          0.2138
O157       O    0.9071419225    0.4175004273    0.3883095384          0.2138
C158       C    0.9148005904    0.3995004846    0.3208860642          0.2138
O159       O    0.0301869474    0.4489557597    0.2835245968          0.2138
O160       O    0.0693759451    0.4963771088    0.3883086405          0.2138
C161       C    0.0609216190    0.4705431774    0.3208852555          0.2138
O162       O    0.9452890836    0.4076752631    0.6657911874          0.2138
O163       O    0.9071412545    0.4174987039    0.5609974365          0.2138
C164       C    0.9147994260    0.3994987961    0.6284322523          0.2138
Zr165     Zr    0.9880495251    0.4455199879    0.6029087902             1.0
O166       O    0.9830536559    0.3996205721    0.6003686175          0.2138
O167       O    0.9871218048    0.4477582426    0.7656820952          0.2138
Zr168     Zr    0.9880504963    0.4455213962    0.3464021823             1.0
O169       O    0.9885644564    0.4024956227    0.3486465966          0.2138
O170       O    0.9864306805    0.4484623320    0.1832159578          0.2138
Zr171     Zr    0.9416066992    0.4569247141    0.4746572599             1.0
Zr172     Zr    0.0357509364    0.5026967716    0.4746567388             1.0
O173       O    0.0166157651    0.4538411938    0.4746560099          0.2138
O174       O    0.9592789851    0.4259645817    0.4746563272          0.2138
O175       O    0.0175943571    0.4938688583    0.6238648207          0.2138
O176       O    0.9597585602    0.4657503335    0.3254491780          0.2138
O177       O    0.9597574374    0.4657490827    0.6238651408          0.2138
O178       O    0.0175954799    0.4938701090    0.3254488579          0.2138
H179       H    0.0322581564    0.5598032207    0.4746506867          0.2138
H180       H    0.9454340770    0.4587864506    0.2541477596          0.2138
H181       H    0.0300902147    0.4411399747    0.4746628416          0.2138
H182       H    0.9454324037    0.4587838355    0.6951667178          0.2138
H183       H    0.9736805316    0.4995224545    0.1525212049          0.2138
H184       H    0.0060190596    0.4673433603    0.1597417856          0.2138
H185       H    0.9723620826    0.3882436329    0.3983363044          0.2138
H186       H    0.0003262439    0.4000152153    0.5600304239          0.2138
H187       H    0.0055759417    0.4677885432    0.7885890593          0.2138
H188       H    0.9754233568    0.4959884202    0.7959489201          0.2138
H189       H    0.9726564289    0.5548918835    0.5475409976          0.2138
H190       H    0.0028546497    0.5721612553    0.3882980608          0.2138
H191       H    0.9867710023    0.3947505956    0.6713282740          0.2138
H192       H    0.9901896510    0.5324950101    0.7915864571          0.2138
H193       H    0.9900263903    0.5644091076    0.2759253394          0.2138
H194       H    0.9878129075    0.4304304246    0.1544419659          0.2138
O195       O    0.5633860510    0.5106294029    0.3337338292          0.2138
O196       O    0.5552116574    0.4632309533    0.4385277862          0.2138
C197       C    0.5725527943    0.4890522534    0.3710077404          0.2138
O198       O    0.5200086131    0.5519909981    0.7163503235          0.2138
O199       O    0.4719716944    0.5421376282    0.6118864177          0.2138
C200       C    0.4976729981    0.5601566259    0.6791577338          0.2138
O201       O    0.5636237148    0.5107209016    0.7159991418          0.2138
O202       O    0.5553186436    0.4632719028    0.6112153215          0.2138
C203       C    0.5727419741    0.4891238010    0.6785532905          0.2138
O204       O    0.5197709493    0.5518994994    0.3340850110          0.2138
O205       O    0.4718647082    0.5420966788    0.4391988824          0.2138
C206       C    0.4974838183    0.5600850782    0.3716121837          0.2138
Zr207     Zr    0.5247239102    0.5140721553    0.3968887473             1.0
O208       O    0.5672405924    0.5573681348    0.4070788909          0.2138
O209       O    0.5216103287    0.5150754979    0.2334047991          0.2138
Zr210     Zr    0.5248816943    0.5141318291    0.6533948232             1.0
O211       O    0.5702362802    0.5557456539    0.6527390353          0.2138
O212       O    0.5187817089    0.5131752655    0.8152314748          0.2138
O213       O    0.5450474489    0.5057836660    0.5249905348          0.2138
O214       O    0.5155909538    0.5336564061    0.5252277138          0.2138
O215       O    0.4186395414    0.4489046469    0.3346945034          0.2138
O216       O    0.4269470366    0.4963513520    0.4394783041          0.2138
C217       C    0.4095212821    0.4705017475    0.3721403546          0.2138
O218       O    0.4624923069    0.4077260490    0.7166086341          0.2138
O219       O    0.5104009721    0.4175265760    0.6114947432          0.2138
C220       C    0.4847794380    0.3995404702    0.6790814614          0.2138
O221       O    0.4188772052    0.4489961455    0.7169598159          0.2138
O222       O    0.4270540228    0.4963923014    0.6121658394          0.2138
C223       C    0.4097104620    0.4705732951    0.6796859047          0.2138
O224       O    0.4622546431    0.4076345504    0.3343433216          0.2138
O225       O    0.5102939859    0.4174856265    0.4388072079          0.2138
C226       C    0.4845902581    0.3994689226    0.3715359113          0.2138
Zr227     Zr    0.4573839860    0.4454914257    0.3972988024             1.0
O228       O    0.4164721262    0.3995910009    0.4000819639          0.2138
O229       O    0.4604506437    0.4476928880    0.2345056920          0.2138
Zr230     Zr    0.4575417700    0.4455510995    0.6538048783             1.0
O231       O    0.4139911840    0.4025228667    0.6518250426          0.2138
O232       O    0.4622033391    0.4485293774    0.8169614619          0.2138
Zr233     Zr    0.5153147028    0.4569299244    0.5251521043             1.0
Zr234     Zr    0.4669485535    0.5026956241    0.5255415408             1.0
O235       O    0.4372182313    0.4538395888    0.5257030908          0.2138
O236       O    0.4666747264    0.4259668487    0.5254659119          0.2138
O237       O    0.4761845289    0.4938350443    0.3762587636          0.2138
O238       O    0.5060811514    0.4657882105    0.6744348620          0.2138
O239       O    0.5058979684    0.4657191746    0.3760195158          0.2138
O240       O    0.4763677119    0.4939040802    0.6746741098          0.2138
H241       H    0.5275604831    0.5598049122    0.5251765359          0.2138
H242       H    0.5134845721    0.4588414912    0.7456769543          0.2138
H243       H    0.4110391914    0.4411366063    0.5258686814          0.2138
H244       H    0.5132130992    0.4587386986    0.3046589121          0.2138
H245       H    0.5260442036    0.4995998667    0.8472562244          0.2138
H246       H    0.4615136984    0.4674148290    0.8404597576          0.2138
H247       H    0.4159086489    0.3882604020    0.6021071639          0.2138
H248       H    0.3996182736    0.3999932864    0.4405399642          0.2138
H249       H    0.4620163676    0.4677172284    0.2116079473          0.2138
H250       H    0.5203718005    0.4959193661    0.2038636109          0.2138
H251       H    0.5822076311    0.5548821079    0.4518942032          0.2138
H252       H    0.5693789679    0.5721857268    0.6112458705          0.2138
H253       H    0.4078400462    0.3947043595    0.3291783062          0.2138
H254       H    0.5421221619    0.5324272474    0.2081092058          0.2138
H255       H    0.5745228569    0.5644599039    0.7235745542          0.2138
H256       H    0.4428028341    0.4305030851    0.8458545368          0.2138
O257       O    0.4602180373    0.0238335610    0.3346965547          0.2138
O258       O    0.5076670627    0.0629859717    0.4394829552          0.2138
C259       C    0.4818120724    0.0545507298    0.3721520674          0.2138
O260       O    0.4190297906    0.9387912447    0.7165908192          0.2138
O261       O    0.4288426228    0.9007011766    0.6114614043          0.2138
C262       C    0.4108496306    0.9083218380    0.6790589432          0.2138
O263       O    0.4602971972    0.0236772308    0.7169618821          0.2138
O264       O    0.5077032079    0.0629153570    0.6121704926          0.2138
C265       C    0.4818778258    0.0544249950    0.6796976053          0.2138
O266       O    0.4189506307    0.9389475749    0.3343254918          0.2138
O267       O    0.4288064775    0.9007717913    0.4387738669          0.2138
C268       C    0.4107838773    0.9084475728    0.3715134054          0.2138
Zr269     Zr    0.4568077190    0.9816850780    0.3972880727             1.0
O270       O    0.4135088090    0.9808810069    0.4079872355          0.2138
O271       O    0.4557316740    0.9776978597    0.2337584608          0.2138
Zr272     Zr    0.4568625601    0.9815802098    0.6537941383             1.0
O273       O    0.4152407368    0.9853046045    0.6536921127          0.2138
O274       O    0.4578921459    0.9763100643    0.8155441347          0.2138
O275       O    0.4651515722    0.0101937402    0.5256998012          0.2138
O276       O    0.4372806487    0.9528639729    0.5254491951          0.2138
O277       O    0.5219635497    0.9408502904    0.3337240324          0.2138
O278       O    0.4745598325    0.9016168819    0.4385154424          0.2138
C279       C    0.5003829211    0.9101025261    0.3709883092          0.2138
O280       O    0.5633101162    0.0255799463    0.7163604227          0.2138
O281       O    0.5534565629    0.0637604475    0.6119120682          0.2138
C282       C    0.5714768696    0.0560799483    0.6791725091          0.2138
O283       O    0.5220427096    0.9406939602    0.7159893598          0.2138
O284       O    0.4745959777    0.9015462672    0.6112029799          0.2138
C285       C    0.5004486745    0.9099767913    0.6785338470          0.2138
O286       O    0.5632309564    0.0257362765    0.3340950953          0.2138
O287       O    0.5534204177    0.0638310623    0.4392245308          0.2138
C288       C    0.5714111163    0.0562056832    0.3716269713          0.2138
Zr289     Zr    0.5254004803    0.9829520291    0.3968917967             1.0
O290       O    0.5713096005    0.9879553464    0.3991949405          0.2138
O291       O    0.5231258424    0.9839450043    0.2341389129          0.2138
Zr292     Zr    0.5254553214    0.9828471609    0.6533978623             1.0
O293       O    0.5684902536    0.9823432201    0.6508934766          0.2138
O294       O    0.5225491831    0.9843999013    0.8166130345          0.2138
Zr295     Zr    0.5140117319    0.0293301220    0.5255486988             1.0
Zr296     Zr    0.4682490150    0.9351973992    0.5251372156             1.0
O297       O    0.5171114683    0.9543384987    0.5249861338          0.2138
O298       O    0.5449823917    0.0116682660    0.5252367400          0.2138
O299       O    0.4770424071    0.9534121939    0.3760089066          0.2138
O300       O    0.5052206333    0.0111200449    0.6746770284          0.2138
O301       O    0.5051564443    0.0112420399    0.3762616988          0.2138
O302       O    0.4771065962    0.9532901990    0.6744242363          0.2138
H303       H    0.4111291763    0.9386774557    0.5255087622          0.2138
H304       H    0.5121987306    0.0254138956    0.7460409873          0.2138
H305       H    0.5298182935    0.9408697249    0.5248056769          0.2138
H306       H    0.5121046346    0.0255942020    0.3050229604          0.2138
H307       H    0.4714818250    0.9971240872    0.8477045260          0.2138
H308       H    0.5036731702    0.9648024536    0.8400571596          0.2138
H309       H    0.5827311534    0.9985650715    0.6012368174          0.2138
H310       H    0.5709272921    0.9706702054    0.4394097960          0.2138
H311       H    0.5030898964    0.9655000911    0.2112170923          0.2138
H312       H    0.4748759064    0.9956430087    0.2042444542          0.2138
H313       H    0.4160132773    0.9982963858    0.4530227685          0.2138
H314       H    0.3987812482    0.9680368170    0.6121486195          0.2138
H315       H    0.5761658662    0.9842685926    0.3281793996          0.2138
H316       H    0.4383652326    0.9808706223    0.2087169442          0.2138
H317       H    0.4065571015    0.9808183080    0.7245682196          0.2138
H318       H    0.5405916866    0.9830100988    0.8452695257          0.2138
C549       C    0.3496527618    0.8793632054    0.7258037208          0.2138
C550       C    0.3821561673    0.8817604983    0.7349058057          0.2138
C551       C    0.3859181769    0.8575520809    0.7999480455          0.2138
C552       C    0.3571767810    0.8309463705    0.8558882003          0.2138
C553       C    0.3246733756    0.8285490775    0.8467861154          0.2138
C554       C    0.3209113659    0.8527574950    0.7817438757          0.2138
H555       H    0.3468678975    0.8972837221    0.6776555693          0.2138
H556       H    0.4099772012    0.8593257825    0.8066874348          0.2138
H557       H    0.3599616453    0.8130258537    0.9040363518          0.2138
H558       H    0.2968523416    0.8509837933    0.7750044863          0.2138
C539       C    0.3800075287    0.8830794117    0.1845433129          0.2138
C540       C    0.3804020302    0.8802513016    0.3024114648          0.2138
C541       C    0.3531822263    0.8517953736    0.3574723067          0.2138
C542       C    0.3255679209    0.8261675557    0.2946649965          0.2138
C543       C    0.3251734194    0.8289956658    0.1767968446          0.2138
C544       C    0.3523932233    0.8574515938    0.1217360027          0.2138
H545       H    0.4001572537    0.9041441896    0.1437839884          0.2138
H546       H    0.3534733735    0.8497011160    0.4447196364          0.2138
H547       H    0.3054181959    0.8051027778    0.3354243210          0.2138
H548       H    0.3521020762    0.8595458514    0.0344886730          0.2138
C529       C    0.1318547098    0.6519817145    0.7176522684          0.2138
C530       C    0.1419622340    0.6457580285    0.8231851028          0.2138
C531       C    0.1264575219    0.6119120196    0.8658987857          0.2138
C532       C    0.1008452858    0.5842896966    0.8030796340          0.2138
C533       C    0.0907377616    0.5905133826    0.6975467996          0.2138
C534       C    0.1062424736    0.6243593915    0.6548331168          0.2138
H535       H    0.1433322239    0.6770365522    0.6860330486          0.2138
H536       H    0.1339385847    0.6073041983    0.9440151664          0.2138
H537       H    0.0893677717    0.5592348589    0.8346988538          0.2138
H538       H    0.0987614108    0.6289672128    0.5767167360          0.2138
C519       C    0.1496254938    0.6230892212    0.2104943752          0.2138
C520       C    0.1423769021    0.6462753117    0.1531999176          0.2138
C521       C    0.1085078184    0.6407284688    0.1518293626          0.2138
C522       C    0.0818873264    0.6119955352    0.2077532652          0.2138
C523       C    0.0891359181    0.5888094446    0.2650477228          0.2138
C524       C    0.1230050018    0.5943562876    0.2664182778          0.2138
H525       H    0.1746974130    0.6271953257    0.2115089419          0.2138
H526       H    0.1031413647    0.6578905551    0.1094201654          0.2138
H527       H    0.0568154072    0.6078894307    0.2067386985          0.2138
H528       H    0.1283714555    0.5771942013    0.3088274751          0.2138
C509       C    0.3487812164    0.4617401285    0.9078842340          0.2138
C510       C    0.3244047453    0.4663441388    0.8469139581          0.2138
C511       C    0.3284678867    0.4723580847    0.7301924238          0.2138
C512       C    0.3569074993    0.4737680203    0.6744411655          0.2138
C513       C    0.3812839704    0.4691640100    0.7354114414          0.2138
C514       C    0.3772208290    0.4631500641    0.8521329757          0.2138
H515       H    0.3457734364    0.4572882465    0.9942884867          0.2138
H516       H    0.3104246380    0.4757661471    0.6850587484          0.2138
H517       H    0.3599152793    0.4782199023    0.5880369128          0.2138
H518       H    0.3952640777    0.4597420017    0.8972666511          0.2138
C499       C    0.3512807227    0.4636183175    0.1223383237          0.2138
C500       C    0.3248596885    0.4663938531    0.1770070544          0.2138
C501       C    0.3257347883    0.4704938338    0.2945896104          0.2138
C502       C    0.3530309223    0.4718182789    0.3575034358          0.2138
C503       C    0.3794519565    0.4690427433    0.3028347050          0.2138
C504       C    0.3785768567    0.4649427626    0.1852521490          0.2138
H505       H    0.3506329216    0.4605832668    0.0352966913          0.2138
H506       H    0.3061780604    0.4725484051    0.3350589318          0.2138
H507       H    0.3536787234    0.4748533296    0.4445450682          0.2138
H508       H    0.3981335847    0.4628881913    0.1447828277          0.2138
C489       C    0.1419249699    0.4651177757    0.7048715851          0.2138
C490       C    0.1415191542    0.4664037917    0.8231552745          0.2138
C491       C    0.1151257536    0.4690239330    0.8786538059          0.2138
C492       C    0.0891381687    0.4703580582    0.8158686478          0.2138
C493       C    0.0895439843    0.4690720421    0.6975849585          0.2138
C494       C    0.1159373849    0.4664519009    0.6420864271          0.2138
H495       H    0.1614629417    0.4631781906    0.6637882567          0.2138
H496       H    0.1148245351    0.4699759204    0.9662087287          0.2138
H497       H    0.0696001968    0.4722976433    0.8569519763          0.2138
H498       H    0.1162386035    0.4654999134    0.5545315042          0.2138
C479       C    0.1127180012    0.4356715899    0.1892703168          0.2138
C480       C    0.1419518224    0.4663362731    0.1532383259          0.2138
C481       C    0.1441720274    0.4984034421    0.1730959865          0.2138
C482       C    0.1171584110    0.4998059277    0.2289856381          0.2138
C483       C    0.0879245897    0.4691412445    0.2650176291          0.2138
C484       C    0.0857043848    0.4370740755    0.2451599684          0.2138
H485       H    0.1110744729    0.4119335557    0.1745704901          0.2138
H486       H    0.1658108682    0.5211023465    0.1464258633          0.2138
H487       H    0.1188019393    0.5235439619    0.2436854648          0.2138
H488       H    0.0640655440    0.4143751711    0.2718300917          0.2138
C469       C    0.4717614539    0.6197338947    0.8090296004          0.2138
C470       C    0.5039482212    0.6466423625    0.8459467638          0.2138
C471       C    0.5340468804    0.6447723221    0.8273641458          0.2138
C472       C    0.5319587724    0.6159938138    0.7718643644          0.2138
C473       C    0.4997720052    0.5890853460    0.7349472010          0.2138
C474       C    0.4696733459    0.5909553864    0.7535298190          0.2138
H475       H    0.4494806282    0.6211182103    0.8227855644          0.2138
H476       H    0.5578723637    0.6646898152    0.8546895108          0.2138
H477       H    0.5542395981    0.6146094982    0.7581084004          0.2138
H478       H    0.4458478627    0.5710378933    0.7262044540          0.2138
C459       C    0.5042595719    0.6177386059    0.1211935169          0.2138
C460       C    0.5038098495    0.6453981383    0.1760225931          0.2138
C461       C    0.5013158008    0.6454878207    0.2940585879          0.2138
C462       C    0.4992714745    0.6179179709    0.3572655066          0.2138
C463       C    0.4997211969    0.5902584385    0.3024364305          0.2138
C464       C    0.5022152456    0.5901687561    0.1844004356          0.2138
H465       H    0.5061058158    0.6176722176    0.0338162221          0.2138
H466       H    0.5009828390    0.6659613111    0.3346466107          0.2138
H467       H    0.4974252307    0.6179843592    0.4446428015          0.2138
H468       H    0.5025482075    0.5696952657    0.1438124128          0.2138
C449       C    0.4994894619    0.8524920392    0.9078163661          0.2138
C450       C    0.5046428957    0.8286466087    0.8457577730          0.2138
C451       C    0.5084012280    0.8318536038    0.7280763758          0.2138
C452       C    0.5070061266    0.8589060294    0.6724535716          0.2138
C453       C    0.5018526928    0.8827514599    0.7345121647          0.2138
C454       C    0.4980943604    0.8795444648    0.8521935619          0.2138
H455       H    0.4967073198    0.8501180298    0.9949311666          0.2138
H456       H    0.5122159003    0.8142034024    0.6821371014          0.2138
H457       H    0.5097882687    0.8612800388    0.5853387711          0.2138
H458       H    0.4942796881    0.8971946662    0.8981328363          0.2138
C439       C    0.5323602130    0.8639701297    0.1723800809          0.2138
C440       C    0.5045664950    0.8298280079    0.1758863773          0.2138
C441       C    0.4754211995    0.8216199879    0.2424238007          0.2138
C442       C    0.4740696221    0.8475540897    0.3054549278          0.2138
C443       C    0.5018633400    0.8816962115    0.3019486314          0.2138
C444       C    0.5310086355    0.8899042315    0.2354112080          0.2138
H445       H    0.5539353019    0.8700461964    0.1231251051          0.2138
H446       H    0.4548474659    0.7963478509    0.2450212545          0.2138
H447       H    0.4524945332    0.8414780230    0.3547099036          0.2138
H448       H    0.5515823692    0.9151763684    0.2328137542          0.2138
C429       C    0.8305946695    0.3369574621    0.1990697509          0.2138
C430       C    0.8384490370    0.3127843052    0.1523602331          0.2138
C431       C    0.8720112759    0.3178088304    0.1623940320          0.2138
C432       C    0.8977191473    0.3470065125    0.2191373489          0.2138
C433       C    0.8898647797    0.3711796694    0.2658468668          0.2138
C434       C    0.8563025408    0.3661551442    0.2558130678          0.2138
H435       H    0.8057498952    0.3332380084    0.1916421335          0.2138
H436       H    0.8778261130    0.2999161046    0.1278201305          0.2138
H437       H    0.9225639215    0.3507259663    0.2265649663          0.2138
H438       H    0.8504877037    0.3840478700    0.2903869694          0.2138
C419       C    0.8282225471    0.3301633946    0.7472309238          0.2138
C420       C    0.8388362090    0.3133443132    0.8239895903          0.2138
C421       C    0.8741718540    0.3245639294    0.8371047542          0.2138
C422       C    0.8988938371    0.3526026270    0.7734612515          0.2138
C423       C    0.8882801752    0.3694217084    0.6967025850          0.2138
C424       C    0.8529445301    0.3582020921    0.6835874211          0.2138
H425       H    0.8020649916    0.3218579644    0.7375222960          0.2138
H426       H    0.8820291671    0.3121148602    0.8939216614          0.2138
H427       H    0.9250513925    0.3609080572    0.7831698792          0.2138
H428       H    0.8450872170    0.3706511613    0.6267705139          0.2138
C409       C    0.6618809726    0.1113917164    0.7675347330          0.2138
C410       C    0.6581689652    0.1324805112    0.8476537971          0.2138
C411       C    0.6252664420    0.1278441021    0.8710427099          0.2138
C412       C    0.5960759262    0.1021188982    0.8143125586          0.2138
C413       C    0.5997879336    0.0810301034    0.7341934945          0.2138
C414       C    0.6326904568    0.0856665125    0.7108045817          0.2138
H415       H    0.6862373859    0.1148238634    0.7502208625          0.2138
H416       H    0.6225177861    0.1434538064    0.9303472965          0.2138
H417       H    0.5717195130    0.0986867512    0.8316264291          0.2138
H418       H    0.6354391128    0.0700568082    0.6514999950          0.2138
C399       C    0.6566124377    0.1015036463    0.2099681479          0.2138
C400       C    0.6575900170    0.1321230856    0.1760237593          0.2138
C401       C    0.6305212861    0.1380357463    0.2057370446          0.2138
C402       C    0.6024749759    0.1133289678    0.2693947185          0.2138
C403       C    0.6014973966    0.0827095284    0.3033391071          0.2138
C404       C    0.6285661275    0.0767968677    0.2736258219          0.2138
H405       H    0.6766503294    0.0971267415    0.1879725991          0.2138
H406       H    0.6312440302    0.1607003336    0.1806124691          0.2138
H407       H    0.5824370842    0.1177058725    0.2913902673          0.2138
H408       H    0.6278433834    0.0541322804    0.2987503973          0.2138
C389       C    0.4878554612    0.3200091918    0.7369788367          0.2138
C390       C    0.4743341485    0.3124369205    0.8468562481          0.2138
C391       C    0.4643214907    0.3341234168    0.9003767889          0.2138
C392       C    0.4678301456    0.3633821843    0.8440199183          0.2138
C393       C    0.4813514583    0.3709544555    0.7341425069          0.2138
C394       C    0.4913641161    0.3492679593    0.6806219661          0.2138
H395       H    0.4952674287    0.3039555517    0.6973597351          0.2138
H396       H    0.4543127462    0.3285191348    0.9817093521          0.2138
H397       H    0.4604181781    0.3794358244    0.8836390199          0.2138
H398       H    0.5013728606    0.3548722413    0.5992894030          0.2138
C379       C    0.4984600715    0.3756441639    0.1998093679          0.2138
C380       C    0.4810589448    0.3696326212    0.3032770290          0.2138
C381       C    0.4603470868    0.3356484883    0.3427495680          0.2138
C382       C    0.4570363555    0.3076758980    0.2787544459          0.2138
C383       C    0.4744374821    0.3136874406    0.1752867847          0.2138
C384       C    0.4951493401    0.3476715735    0.1358142457          0.2138
H385       H    0.5137922261    0.4008012493    0.1705894364          0.2138
H386       H    0.4474661793    0.3311976903    0.4193372123          0.2138
H387       H    0.4417042009    0.2825188125    0.3079743773          0.2138
H388       H    0.5080302477    0.3521223715    0.0592266015          0.2138
C369       C    0.4459037649    0.0982146732    0.8491736444          0.2138
C370       C    0.4736164162    0.1324126740    0.8470180773          0.2138
C371       C    0.5041044900    0.1404106960    0.7886511589          0.2138
C372       C    0.5068799125    0.1142107172    0.7324398077          0.2138
C373       C    0.4791672611    0.0800127164    0.7345953748          0.2138
C374       C    0.4486791873    0.0720146944    0.7929622931          0.2138
H375       H    0.4233346713    0.0922940595    0.8923803242          0.2138
H376       H    0.5246182609    0.1657241877    0.7870537687          0.2138
H377       H    0.5294490061    0.1201313309    0.6892331279          0.2138
H378       H    0.4281654164    0.0467012027    0.7945596834          0.2138
C359       C    0.5075330345    0.1057060470    0.2412547782          0.2138
C360       C    0.4789976701    0.0812464698    0.3037351383          0.2138
C361       C    0.4478235975    0.0818161021    0.3020696217          0.2138
C362       C    0.4451848894    0.1068453116    0.2379237449          0.2138
C363       C    0.4737202539    0.1313048888    0.1754433848          0.2138
C364       C    0.5048943264    0.1307352565    0.1771089014          0.2138
H365       H    0.5306099454    0.1052843712    0.2424876931          0.2138
H366       H    0.4267008356    0.0637112280    0.3483173095          0.2138
H367       H    0.4221079785    0.1072669874    0.2366908300          0.2138
H368       H    0.5260170884    0.1488401306    0.1308612136          0.2138
C349       C    0.6301957144    0.4645696516    0.8226686197          0.2138
C350       C    0.6584870583    0.4973230618    0.8475095930          0.2138
C351       C    0.6579044710    0.5273154404    0.8154559617          0.2138
C352       C    0.6290305397    0.5245544087    0.7585613571          0.2138
C353       C    0.6007391958    0.4918009985    0.7337203838          0.2138
C354       C    0.6013217831    0.4618086199    0.7657740151          0.2138
H355       H    0.6306269803    0.4423675012    0.8463966325          0.2138
H356       H    0.6788456047    0.5515603475    0.8338421475          0.2138
H357       H    0.6285992738    0.5467565591    0.7348333443          0.2138
H358       H    0.5803806494    0.4375637128    0.7473878293          0.2138
C339       C    0.6591293985    0.5271322536    0.2183446114          0.2138
C340       C    0.6578958025    0.4971678529    0.1758494294          0.2138
C341       C    0.6288833583    0.4645618532    0.1968775894          0.2138
C342       C    0.6011045101    0.4619202542    0.2604009314          0.2138
C343       C    0.6023381061    0.4918846548    0.3028961134          0.2138
C344       C    0.6313505503    0.5244906546    0.2818679534          0.2138
H345       H    0.6806061429    0.5512691625    0.2027783112          0.2138
H346       H    0.6279693367    0.4423812785    0.1654234722          0.2138
H347       H    0.5796277656    0.4377833453    0.2759672316          0.2138
H348       H    0.6322645719    0.5466712293    0.3133220706          0.2138
C329       C    0.8693076209    0.5045208828    0.0952636054          0.2138
C330       C    0.8388496098    0.4973118699    0.1523519262          0.2138
C331       C    0.8345184395    0.4873308559    0.2661912551          0.2138
C332       C    0.8606452802    0.4845588548    0.3229422634          0.2138
C333       C    0.8911032912    0.4917678676    0.2658539427          0.2138
C334       C    0.8954344616    0.5017488817    0.1520146137          0.2138
H335       H    0.8725138119    0.5119094256    0.0109929333          0.2138
H336       H    0.8119733909    0.4819944543    0.3084514299          0.2138
H337       H    0.8574390892    0.4771703119    0.4072129355          0.2138
H338       H    0.9179795102    0.5070852832    0.1097544389          0.2138
C319       C    0.8679017970    0.5271296262    0.7810182979          0.2138
C320       C    0.8392587376    0.4971738715    0.8239964461          0.2138
C321       C    0.8357343917    0.4645832723    0.8033236186          0.2138
C322       C    0.8608531053    0.4619484278    0.7396726428          0.2138
C323       C    0.8894961647    0.4919041824    0.6966944946          0.2138
C324       C    0.8930205106    0.5244947816    0.7173673222          0.2138
H325       H    0.8705107283    0.5512551347    0.7963215599          0.2138
H326       H    0.8145327894    0.4424090978    0.8351352369          0.2138
H327       H    0.8582441740    0.4378229193    0.7243693809          0.2138
H328       H    0.9142221129    0.5466689562    0.6855557039          0.2138
loop_
_geom_bond_atom_site_label_1
_geom_bond_atom_site_label_2
_geom_bond_distance
_geom_bond_site_symmetry_2
_ccdc_geom_bond_type
C1           C2 1.540       .   A
C1           C6 1.540       .   A
C1         C320 1.652       .   S
C2           C3 1.540       .   A
C2          H21 1.140       .   S
C3           C4 1.540       .   A
C3         C330 1.493       .   S
C4           C5 1.540       .   A
C4          C11 1.540       .   A
C5           C6 1.540       .   A
C5          C10 1.540       .   A
C6           C7 1.540       .   A
C7           C8 1.540       .   A
C7          H17 1.140       .   S
C8           C9 1.540       .   A
C8          H18 1.140       .   S
C9          C10 1.540       .   A
C9          C16 1.540       .   A
C10         C13 1.540       .   A
C11         C12 1.540       .   A
C11         H19 1.140       .   S
C12         C13 1.540       .   A
C12         H20 1.140       .   S
C13         C14 1.540       .   A
C14         C15 1.540       .   A
C14        C340 1.651       .   S
C15         C16 1.540       .   A
C15         H22 1.140       .   S
C16        C350 1.493       .   S
C23         C24 1.540       .   A
C23         C28 1.540       .   A
C23        C370 1.504       .   S
C24         C25 1.540       .   A
C24         H43 1.140       .   S
C25         C26 1.540       .   A
C25        C363 1.643       .   S
C26         C27 1.540       .   A
C26         C33 1.540       .   A
C27         C28 1.540       .   A
C27         C32 1.540       .   A
C28         C29 1.540       .   A
C29         C30 1.540       .   A
C29         H39 1.140       .   S
C30         C31 1.540       .   A
C30         H40 1.140       .   S
C31         C32 1.540       .   A
C31         C38 1.540       .   A
C32         C35 1.540       .   A
C33         C34 1.540       .   A
C33         H41 1.140       .   S
C34         C35 1.540       .   A
C34         H42 1.140       .   S
C35         C36 1.540       .   A
C36         C37 1.540       .   A
C36        C383 1.643       .   S
C37         C38 1.540       .   A
C37         H44 1.140       .   S
C38        C390 1.505       .   S
C45         C46 1.540       .   A
C45         C50 1.540       .   A
C45        C400 1.652       .   S
C46         C47 1.540       .   A
C46         H65 1.140       .   S
C47         C48 1.540       .   A
C47        C410 1.494       .   S
C48         C49 1.540       .   A
C48         C55 1.540       .   A
C49         C50 1.540       .   A
C49         C54 1.540       .   A
C50         C51 1.540       .   A
C51         C52 1.540       .   A
C51         H61 1.140       .   S
C52         C53 1.540       .   A
C52         H62 1.140       .   S
C53         C54 1.540       .   A
C53         C60 1.540       .   A
C54         C57 1.540       .   A
C55         C56 1.540       .   A
C55         H63 1.140       .   S
C56         C57 1.540       .   A
C56         H64 1.140       .   S
C57         C58 1.540       .   A
C58         C59 1.540       .   A
C58        C420 1.652       .   S
C59         C60 1.540       .   A
C59         H66 1.140       .   S
C60        C430 1.494       .   S
C67         C68 1.540       .   A
C67         C72 1.540       .   A
C67        C440 1.687       .   S
C68         C69 1.540       .   A
C68         H87 1.140       .   S
C69         C70 1.540       .   A
C69        C450 1.550       .   S
C70         C71 1.540       .   A
C70         C77 1.540       .   A
C71         C72 1.540       .   A
C71         C76 1.540       .   A
C72         C73 1.540       .   A
C73         C74 1.540       .   A
C73         H83 1.140       .   S
C74         C75 1.540       .   A
C74         H84 1.140       .   S
C75         C76 1.540       .   A
C75         C82 1.540       .   A
C76         C79 1.540       .   A
C77         C78 1.540       .   A
C77         H85 1.140       .   S
C78         C79 1.540       .   A
C78         H86 1.140       .   S
C79         C80 1.540       .   A
C80         C81 1.540       .   A
C80        C470 1.548       .   S
C81         C82 1.540       .   A
C81         H88 1.140       .   S
C82        C460 1.685       .   S
C89         C90 1.540       .   A
C89         C94 1.540       .   A
C89        C490 1.696       .   S
C90         C91 1.540       .   A
C90        H109 1.140       .   S
C91         C92 1.540       .   A
C91        C480 1.539       .   S
C92         C93 1.540       .   A
C92         C99 1.540       .   A
C93         C94 1.540       .   A
C93         C98 1.540       .   A
C94         C95 1.540       .   A
C95         C96 1.540       .   A
C95        H105 1.140       .   S
C96         C97 1.540       .   A
C96        H106 1.140       .   S
C97         C98 1.540       .   A
C97        C104 1.540       .   A
C98        C101 1.540       .   A
C99        C100 1.540       .   A
C99        H107 1.140       .   S
C100       C101 1.540       .   A
C100       H108 1.140       .   S
C101       C102 1.540       .   A
C102       C103 1.540       .   A
C102       C500 1.696       .   S
C103       C104 1.540       .   A
C103       H110 1.140       .   S
C104       C510 1.539       .   S
C111       C112 1.540       .   A
C111       C116 1.540       .   A
C111       C530 1.694       .   S
C112       C113 1.540       .   A
C112       H131 1.140       .   S
C113       C114 1.540       .   A
C113       C520 1.538       .   S
C114       C115 1.540       .   A
C114       C121 1.540       .   A
C115       C116 1.540       .   A
C115       C120 1.540       .   A
C116       C117 1.540       .   A
C117       C118 1.540       .   A
C117       H127 1.140       .   S
C118       C119 1.540       .   A
C118       H128 1.140       .   S
C119       C120 1.540       .   A
C119       C126 1.540       .   A
C120       C123 1.540       .   A
C121       C122 1.540       .   A
C121       H129 1.140       .   S
C122       C123 1.540       .   A
C122       H130 1.140       .   S
C123       C124 1.540       .   A
C124       C125 1.540       .   A
C124       C543 1.694       .   S
C125       C126 1.540       .   A
C125       H132 1.140       .   S
C126       C553 1.537       .   S
O133      Zr145 2.145       .   S
O133       C135 1.423       .   A
O134      Zr171 2.139       .   S
O134       C135 1.420       .   A
C135       C323 1.652   1_556   S
O136      Zr148 2.146       .   S
O136       C138 1.423       .   A
O137      Zr172 2.139       .   S
O137       C138 1.420       .   A
C138       C523 1.538   1_654   S
O139      Zr148 2.145       .   S
O139       C141 1.423       .   A
O140      Zr171 2.139       .   S
O140       C141 1.420       .   A
C141       C333 1.493       .   S
O142      Zr145 2.145       .   S
O142       C144 1.423       .   A
O143      Zr172 2.139       .   S
O143       C144 1.420       .   A
C144       C533 1.694   1_655   S
Zr145      O146 2.104       .   S
Zr145      O147 2.134       .   S
Zr145      O151 2.082       .   S
Zr145      O152 2.082       .   S
Zr145      O175 2.084       .   S
Zr145      O177 2.084       .   S
O146       H189 0.990       .   S
O147       H188 0.987       .   S
O147       H192 0.992       .   S
Zr148      O149 2.134       .   S
Zr148      O150 2.123       .   S
Zr148      O152 2.081       .   S
Zr148      O151 2.081       .   S
Zr148      O176 2.084       .   S
Zr148      O178 2.084       .   S
O149       H190 0.987       .   S
O149       H193 0.992       .   S
O150       H183 0.989       .   S
O151      Zr171 2.087       .   S
O152      Zr172 2.087       .   S
O152       H179 1.110       .   S
O153      Zr165 2.146       .   S
O153       C155 1.423       .   A
O154      Zr172 2.139       .   S
O154       C155 1.420       .   A
C155       C493 1.696   1_656   S
O156      Zr168 2.145       .   S
O156       C158 1.423       .   A
O157      Zr171 2.139       .   S
O157       C158 1.420       .   A
C158       C433 1.494   1_554   S
O159      Zr168 2.145       .   S
O159       C161 1.423       .   A
O160      Zr172 2.139       .   S
O160       C161 1.420       .   A
C161       C483 1.539   1_655   S
O162      Zr165 2.145       .   S
O162       C164 1.423       .   A
O163      Zr171 2.139       .   S
O163       C164 1.420       .   A
C164       C423 1.652       .   S
Zr165      O166 2.135       .   S
Zr165      O167 2.121       .   S
Zr165      O173 2.081       .   S
Zr165      O174 2.081       .   S
Zr165      O177 2.084       .   S
Zr165      O175 2.084       .   S
O166       H186 0.987       .   S
O166       H191 0.992       .   S
O167       H187 0.990       .   S
Zr168      O169 2.119       .   S
Zr168      O170 2.131       .   S
Zr168      O174 2.082       .   S
Zr168      O173 2.082       .   S
Zr168      O178 2.084       .   S
Zr168      O176 2.084       .   S
O169       H185 0.990       .   S
O170       H184 0.990       .   S
O170       H194 0.992       .   S
Zr171      O174 2.087       .   S
Zr171      O176 2.087       .   S
Zr171      O177 2.087       .   S
Zr172      O173 2.087       .   S
Zr172      O175 2.087       .   S
Zr172      O178 2.087       .   S
O173       H181 1.110       .   S
O176       H180 1.108       .   S
O177       H182 1.108       .   S
O195      Zr207 2.145       .   S
O195       C197 1.423       .   A
O196      Zr233 2.139       .   S
O196       C197 1.420       .   A
C197       C343 1.651       .   S
O198      Zr210 2.146       .   S
O198       C200 1.423       .   A
O199      Zr234 2.139       .   S
O199       C200 1.420       .   A
C200       C473 1.548   1_556   S
O201      Zr210 2.145       .   S
O201       C203 1.423       .   A
O202      Zr233 2.139       .   S
O202       C203 1.420       .   A
C203       C353 1.493   1_556   S
O204      Zr207 2.145       .   S
O204       C206 1.423       .   A
O205      Zr234 2.139       .   S
O205       C206 1.420       .   A
C206       C463 1.685       .   S
Zr207      O208 2.104       .   S
Zr207      O209 2.134       .   S
Zr207      O213 2.082       .   S
Zr207      O214 2.082       .   S
Zr207      O237 2.084       .   S
Zr207      O239 2.084       .   S
O208       H251 0.990       .   S
O209       H250 0.987       .   S
O209       H254 0.992       .   S
Zr210      O211 2.134       .   S
Zr210      O212 2.123       .   S
Zr210      O214 2.081       .   S
Zr210      O213 2.081       .   S
Zr210      O238 2.084       .   S
Zr210      O240 2.084       .   S
O211       H252 0.987       .   S
O211       H255 0.992       .   S
O212       H245 0.989       .   S
O213      Zr233 2.087       .   S
O214      Zr234 2.087       .   S
O214       H241 1.110       .   S
O215      Zr227 2.146       .   S
O215       C217 1.423       .   A
O216      Zr234 2.139       .   S
O216       C217 1.420       .   A
C217       C503 1.696       .   S
O218      Zr230 2.145       .   S
O218       C220 1.423       .   A
O219      Zr233 2.139       .   S
O219       C220 1.420       .   A
C220       C393 1.505   1_556   S
O221      Zr230 2.145       .   S
O221       C223 1.423       .   A
O222      Zr234 2.139       .   S
O222       C223 1.420       .   A
C223       C513 1.539   1_556   S
O224      Zr227 2.145       .   S
O224       C226 1.423       .   A
O225      Zr233 2.139       .   S
O225       C226 1.420       .   A
C226       C380 1.643       .   S
Zr227      O228 2.135       .   S
Zr227      O229 2.121       .   S
Zr227      O235 2.081       .   S
Zr227      O236 2.081       .   S
Zr227      O239 2.084       .   S
Zr227      O237 2.084       .   S
O228       H248 0.987       .   S
O228       H253 0.992       .   S
O229       H249 0.990       .   S
Zr230      O231 2.119       .   S
Zr230      O232 2.131       .   S
Zr230      O236 2.082       .   S
Zr230      O235 2.082       .   S
Zr230      O240 2.084       .   S
Zr230      O238 2.084       .   S
O231       H247 0.990       .   S
O232       H246 0.990       .   S
O232       H256 0.992       .   S
Zr233      O236 2.087       .   S
Zr233      O238 2.087       .   S
Zr233      O239 2.087       .   S
Zr234      O235 2.087       .   S
Zr234      O237 2.087       .   S
Zr234      O240 2.087       .   S
O235       H243 1.110       .   S
O238       H242 1.108       .   S
O239       H244 1.108       .   S
O257      Zr269 2.145       .   S
O257       C259 1.423       .   A
O258      Zr295 2.139       .   S
O258       C259 1.420       .   A
C259       C360 1.643   1_565   S
O260      Zr272 2.146       .   S
O260       C262 1.423       .   A
O261      Zr296 2.139       .   S
O261       C262 1.420       .   A
C262       C550 1.537       .   S
O263      Zr272 2.145       .   S
O263       C265 1.423       .   A
O264      Zr295 2.139       .   S
O264       C265 1.420       .   A
C265       C373 1.504   1_566   S
O266      Zr269 2.145       .   S
O266       C268 1.423       .   A
O267      Zr296 2.139       .   S
O267       C268 1.420       .   A
C268       C540 1.694   1_554   S
Zr269      O270 2.104       .   S
Zr269      O271 2.134       .   S
Zr269      O275 2.082       .   S
Zr269      O276 2.082       .   S
Zr269      O299 2.084       .   S
Zr269      O301 2.084       .   S
O270       H313 0.990       .   S
O271       H312 0.987       .   S
O271       H316 0.992       .   S
Zr272      O273 2.134       .   S
Zr272      O274 2.123       .   S
Zr272      O276 2.081       .   S
Zr272      O275 2.081       .   S
Zr272      O300 2.084       .   S
Zr272      O302 2.084       .   S
O273       H314 0.987       .   S
O273       H317 0.992       .   S
O274       H307 0.989       .   S
O275      Zr295 2.087       .   S
O276      Zr296 2.087       .   S
O276       H303 1.110       .   S
O277      Zr289 2.146       .   S
O277       C279 1.423       .   A
O278      Zr296 2.139       .   S
O278       C279 1.420       .   A
C279       C443 1.687       .   S
O280      Zr292 2.145       .   S
O280       C282 1.423       .   A
O281      Zr295 2.139       .   S
O281       C282 1.420       .   A
C282       C413 1.494   1_565   S
O283      Zr292 2.145       .   S
O283       C285 1.423       .   A
O284      Zr296 2.139       .   S
O284       C285 1.420       .   A
C285       C453 1.550   1_556   S
O286      Zr289 2.145       .   S
O286       C288 1.423       .   A
O287      Zr295 2.139       .   S
O287       C288 1.420       .   A
C288       C403 1.652   1_564   S
Zr289      O290 2.135       .   S
Zr289      O291 2.121       .   S
Zr289      O297 2.081       .   S
Zr289      O298 2.081       .   S
Zr289      O301 2.084       .   S
Zr289      O299 2.084       .   S
O290       H310 0.987       .   S
O290       H315 0.992       .   S
O291       H311 0.990       .   S
Zr292      O293 2.119       .   S
Zr292      O294 2.131       .   S
Zr292      O298 2.082       .   S
Zr292      O297 2.082       .   S
Zr292      O302 2.084       .   S
Zr292      O300 2.084       .   S
O293       H309 0.990       .   S
O294       H308 0.990       .   S
O294       H318 0.992       .   S
Zr295      O298 2.087       .   S
Zr295      O300 2.087       .   S
Zr295      O301 2.087       .   S
Zr296      O297 2.087       .   S
Zr296      O299 2.087       .   S
Zr296      O302 2.087       .   S
O297       H305 1.110       .   S
O300       H304 1.108       .   S
O301       H306 1.108       .   S
C549       C550 1.540       .   A
C549       C554 1.540       .   A
C549       H555 1.140       .   S
C550       C551 1.540       .   A
C551       C552 1.540       .   A
C551       H556 1.140       .   S
C552       C553 1.540       .   A
C552       H557 1.140       .   S
C553       C554 1.540       .   A
C554       H558 1.140       .   S
C539       C540 1.540       .   A
C539       C544 1.540       .   A
C539       H545 1.140       .   S
C540       C541 1.540       .   A
C541       C542 1.540       .   A
C541       H546 1.140       .   S
C542       C543 1.540       .   A
C542       H547 1.140       .   S
C543       C544 1.540       .   A
C544       H548 1.140       .   S
C529       C530 1.540       .   A
C529       C534 1.540       .   A
C529       H535 1.140       .   S
C530       C531 1.540       .   A
C531       C532 1.540       .   A
C531       H536 1.140       .   S
C532       C533 1.540       .   A
C532       H537 1.140       .   S
C533       C534 1.540       .   A
C534       H538 1.140       .   S
C519       C520 1.540       .   A
C519       C524 1.540       .   A
C519       H525 1.140       .   S
C520       C521 1.540       .   A
C521       C522 1.540       .   A
C521       H526 1.140       .   S
C522       C523 1.540       .   A
C522       H527 1.140       .   S
C523       C524 1.540       .   A
C524       H528 1.140       .   S
C509       C510 1.540       .   A
C509       C514 1.540       .   A
C509       H515 1.140       .   S
C510       C511 1.540       .   A
C511       C512 1.540       .   A
C511       H516 1.140       .   S
C512       C513 1.540       .   A
C512       H517 1.140       .   S
C513       C514 1.540       .   A
C514       H518 1.140       .   S
C499       C500 1.540       .   A
C499       C504 1.540       .   A
C499       H505 1.140       .   S
C500       C501 1.540       .   A
C501       C502 1.540       .   A
C501       H506 1.140       .   S
C502       C503 1.540       .   A
C502       H507 1.140       .   S
C503       C504 1.540       .   A
C504       H508 1.140       .   S
C489       C490 1.540       .   A
C489       C494 1.540       .   A
C489       H495 1.140       .   S
C490       C491 1.540       .   A
C491       C492 1.540       .   A
C491       H496 1.140       .   S
C492       C493 1.540       .   A
C492       H497 1.140       .   S
C493       C494 1.540       .   A
C494       H498 1.140       .   S
C479       C480 1.540       .   A
C479       C484 1.540       .   A
C479       H485 1.140       .   S
C480       C481 1.540       .   A
C481       C482 1.540       .   A
C481       H486 1.140       .   S
C482       C483 1.540       .   A
C482       H487 1.140       .   S
C483       C484 1.540       .   A
C484       H488 1.140       .   S
C469       C470 1.540       .   A
C469       C474 1.540       .   A
C469       H475 1.140       .   S
C470       C471 1.540       .   A
C471       C472 1.540       .   A
C471       H476 1.140       .   S
C472       C473 1.540       .   A
C472       H477 1.140       .   S
C473       C474 1.540       .   A
C474       H478 1.140       .   S
C459       C460 1.540       .   A
C459       C464 1.540       .   A
C459       H465 1.140       .   S
C460       C461 1.540       .   A
C461       C462 1.540       .   A
C461       H466 1.140       .   S
C462       C463 1.540       .   A
C462       H467 1.140       .   S
C463       C464 1.540       .   A
C464       H468 1.140       .   S
C449       C450 1.540       .   A
C449       C454 1.540       .   A
C449       H455 1.140       .   S
C450       C451 1.540       .   A
C451       C452 1.540       .   A
C451       H456 1.140       .   S
C452       C453 1.540       .   A
C452       H457 1.140       .   S
C453       C454 1.540       .   A
C454       H458 1.140       .   S
C439       C440 1.540       .   A
C439       C444 1.540       .   A
C439       H445 1.140       .   S
C440       C441 1.540       .   A
C441       C442 1.540       .   A
C441       H446 1.140       .   S
C442       C443 1.540       .   A
C442       H447 1.140       .   S
C443       C444 1.540       .   A
C444       H448 1.140       .   S
C429       C430 1.540       .   A
C429       C434 1.540       .   A
C429       H435 1.140       .   S
C430       C431 1.540       .   A
C431       C432 1.540       .   A
C431       H436 1.140       .   S
C432       C433 1.540       .   A
C432       H437 1.140       .   S
C433       C434 1.540       .   A
C434       H438 1.140       .   S
C419       C420 1.540       .   A
C419       C424 1.540       .   A
C419       H425 1.140       .   S
C420       C421 1.540       .   A
C421       C422 1.540       .   A
C421       H426 1.140       .   S
C422       C423 1.540       .   A
C422       H427 1.140       .   S
C423       C424 1.540       .   A
C424       H428 1.140       .   S
C409       C410 1.540       .   A
C409       C414 1.540       .   A
C409       H415 1.140       .   S
C410       C411 1.540       .   A
C411       C412 1.540       .   A
C411       H416 1.140       .   S
C412       C413 1.540       .   A
C412       H417 1.140       .   S
C413       C414 1.540       .   A
C414       H418 1.140       .   S
C399       C400 1.540       .   A
C399       C404 1.540       .   A
C399       H405 1.140       .   S
C400       C401 1.540       .   A
C401       C402 1.540       .   A
C401       H406 1.140       .   S
C402       C403 1.540       .   A
C402       H407 1.140       .   S
C403       C404 1.540       .   A
C404       H408 1.140       .   S
C389       C390 1.540       .   A
C389       C394 1.540       .   A
C389       H395 1.140       .   S
C390       C391 1.540       .   A
C391       C392 1.540       .   A
C391       H396 1.140       .   S
C392       C393 1.540       .   A
C392       H397 1.140       .   S
C393       C394 1.540       .   A
C394       H398 1.140       .   S
C379       C380 1.540       .   A
C379       C384 1.540       .   A
C379       H385 1.140       .   S
C380       C381 1.540       .   A
C381       C382 1.540       .   A
C381       H386 1.140       .   S
C382       C383 1.540       .   A
C382       H387 1.140       .   S
C383       C384 1.540       .   A
C384       H388 1.140       .   S
C369       C370 1.540       .   A
C369       C374 1.540       .   A
C369       H375 1.140       .   S
C370       C371 1.540       .   A
C371       C372 1.540       .   A
C371       H376 1.140       .   S
C372       C373 1.540       .   A
C372       H377 1.140       .   S
C373       C374 1.540       .   A
C374       H378 1.140       .   S
C359       C360 1.540       .   A
C359       C364 1.540       .   A
C359       H365 1.140       .   S
C360       C361 1.540       .   A
C361       C362 1.540       .   A
C361       H366 1.140       .   S
C362       C363 1.540       .   A
C362       H367 1.140       .   S
C363       C364 1.540       .   A
C364       H368 1.140       .   S
C349       C350 1.540       .   A
C349       C354 1.540       .   A
C349       H355 1.140       .   S
C350       C351 1.540       .   A
C351       C352 1.540       .   A
C351       H356 1.140       .   S
C352       C353 1.540       .   A
C352       H357 1.140       .   S
C353       C354 1.540       .   A
C354       H358 1.140       .   S
C339       C340 1.540       .   A
C339       C344 1.540       .   A
C339       H345 1.140       .   S
C340       C341 1.540       .   A
C341       C342 1.540       .   A
C341       H346 1.140       .   S
C342       C343 1.540       .   A
C342       H347 1.140       .   S
C343       C344 1.540       .   A
C344       H348 1.140       .   S
C329       C330 1.540       .   A
C329       C334 1.540       .   A
C329       H335 1.140       .   S
C330       C331 1.540       .   A
C331       C332 1.540       .   A
C331       H336 1.140       .   S
C332       C333 1.540       .   A
C332       H337 1.140       .   S
C333       C334 1.540       .   A
C334       H338 1.140       .   S
C319       C320 1.540       .   A
C319       C324 1.540       .   A
C319       H325 1.140       .   S
C320       C321 1.540       .   A
C321       C322 1.540       .   A
C321       H326 1.140       .   S
C322       C323 1.540       .   A
C322       H327 1.140       .   S
C323       C324 1.540       .   A
C324       H328 1.140       .   S
