data_fjh_v1-3c_B_Ch_v2-4c_B_Ch_v3-4c_Cu_1_Ch_2-1B_4H_Ch
_audit_creation_date              2024-08-05
_audit_creation_method            'tobacco_3.0'
_symmetry_space_group_name_H-M    'P1'
_symmetry_Int_Tables_number       1
_symmetry_cell_setting            triclinic
loop_
_symmetry_equiv_pos_as_xyz
  x,y,z
_cell_length_a                    38.27713519170621
_cell_length_b                    38.25950388356238
_cell_length_c                    29.20754471624342
_cell_angle_alpha                 89.99997212807237
_cell_angle_beta                  90.00070097380103
_cell_angle_gamma                 93.71384364759491
loop_
_atom_site_label
_atom_site_type_symbol
_atom_site_fract_x
_atom_site_fract_y
_atom_site_fract_z
_atom_site_charge
C1         C    0.5206079242    0.2319103511    0.2125003081          0.1697
C2         C    0.5181430465    0.2719183944    0.2115483208          0.1697
C3         C    0.4975351223    0.2900080432    0.2490480127          0.1697
C4         C    0.4793920758    0.2680896489    0.2874996919          0.1697
C5         C    0.4818569535    0.2280816056    0.2884516792          0.1697
C6         C    0.5024648777    0.2099919568    0.2509519873          0.1697
H7         H    0.5315747280    0.2881481016    0.1830812896          0.1697
H8         H    0.4641368591    0.2814806877    0.3152592041          0.1697
H9         H    0.5042884129    0.1803712107    0.2516595063          0.1697
C10        C    0.4826393378    0.4510468187    0.2588789770         -0.8045
C11        C    0.5115296526    0.4809918167    0.2591300355         -0.8049
C12        C    0.5016239643    0.5193675370    0.2590934566         -1.0101
C13        C    0.4628279611    0.5277982592    0.2588058191         -0.8045
C14        C    0.4339376463    0.4978532612    0.2585547607         -0.8049
C15        C    0.4438433346    0.4594775409    0.2585913396         -1.0101
H16        H    0.4224521859    0.4373089350    0.2584054529         -0.7844
H17        H    0.5230151130    0.5415361429    0.2592793433         -0.7844
C18        C    0.7318883394    0.4522078814    0.2990752206          0.1697
C19        C    0.6917388692    0.4531243128    0.3003575961          0.1697
C20        C    0.6726753503    0.4731997441    0.2632192756          0.1697
C21        C    0.6937613016    0.4923587438    0.2247985795          0.1697
C22        C    0.7339107718    0.4914423123    0.2235162040          0.1697
C23        C    0.7529742907    0.4713668811    0.2606545245          0.1697
H24        H    0.6761254352    0.4389403798    0.3288017131          0.1697
H25        H    0.6796493460    0.5072197773    0.1973065760          0.1697
H26        H    0.7826996803    0.4706897806    0.2597024110          0.1697
C27        C    0.4235643130    0.7461098054    0.2127004094          0.1697
C28        C    0.4260246200    0.7061018913    0.2116988346          0.1697
C29        C    0.4467617884    0.6880009435    0.2490596035          0.1697
C30        C    0.4650386498    0.7099079098    0.2874219472          0.1697
C31        C    0.4625783428    0.7499158239    0.2884235221          0.1697
C32        C    0.4418411744    0.7680167718    0.2510627531          0.1697
H33        H    0.4124938710    0.6898806446    0.1832979376          0.1697
H34        H    0.4803895407    0.6965085069    0.3150786204          0.1697
H35        H    0.4400210325    0.7976374214    0.2518069770          0.1697
C36        C    0.2134947044    0.5294272300    0.2956849000          0.1697
C37        C    0.2536453064    0.5285387479    0.2970368199          0.1697
C38        C    0.2727926892    0.5087891792    0.2596605614          0.1697
C39        C    0.2517894700    0.4899280926    0.2209323830          0.1697
C40        C    0.2116388680    0.4908165747    0.2195804632          0.1697
C41        C    0.1924914852    0.5105661434    0.2569567217          0.1697
H42        H    0.2691974914    0.5425021286    0.3257085804          0.1697
H43        H    0.2659635066    0.4753082819    0.1932642436          0.1697
H44        H    0.1627652636    0.5112225733    0.2559531006          0.1697
C45        C    0.3978844890    0.7420359706    0.7711169450          0.1697
C46        C    0.4163819495    0.7638250880    0.7328139484          0.1697
C47        C    0.4372972216    0.7456046831    0.6957421651          0.1697
C48        C    0.4397150333    0.7055951607    0.6969733785          0.1697
C49        C    0.4212175728    0.6838060433    0.7352763751          0.1697
C50        C    0.4003023007    0.7020264482    0.7723481584          0.1697
H51        H    0.4145932840    0.7934469199    0.7318997202          0.1697
H52        H    0.4551977672    0.6921073285    0.6695306298          0.1697
H53        H    0.3866082323    0.6858924485    0.8007051352          0.1697
C54        C    0.4615005758    0.5269614796    0.7602464139         -0.8045
C55        C    0.4327089886    0.4969216889    0.7600557587         -0.8049
C56        C    0.4427503827    0.4585901597    0.7603864839         -1.0101
C57        C    0.4815833639    0.4502984214    0.7609078643         -0.8045
C58        C    0.5103749511    0.4803382122    0.7610985194         -0.8049
C59        C    0.5003335571    0.5186697413    0.7607677942         -1.0101
H60        H    0.5216516173    0.5409085351    0.7609089791         -0.7844
H61        H    0.4214323224    0.4363513660    0.7602452990         -0.7844
C62        C    0.2159215329    0.5482359766    0.7349022946          0.1697
C63        C    0.2560977761    0.5475181154    0.7343754938          0.1697
C64        C    0.2748763343    0.5277503642    0.7720765190          0.1697
C65        C    0.2534786494    0.5087004742    0.8103043450          0.1697
C66        C    0.2133024062    0.5094183354    0.8108311458          0.1697
C67        C    0.1945238480    0.5291860866    0.7731301205          0.1697
H68        H    0.2719419981    0.5616212852    0.7060742183          0.1697
H69        H    0.2673796600    0.4940672038    0.8382128961          0.1697
H70        H    0.1647786154    0.5297161872    0.7735228450          0.1697
C71        C    0.5429374844    0.2354723459    0.7751601634          0.1697
C72        C    0.5403156869    0.2754569149    0.7763326246          0.1697
C73        C    0.5195265790    0.2935658763    0.7390314353          0.1697
C74        C    0.5013592687    0.2716902689    0.7005577849          0.1697
C75        C    0.5039810661    0.2317056999    0.6993853237          0.1697
C76        C    0.5247701740    0.2135967385    0.7366865129          0.1697
H77        H    0.5537653205    0.2916549440    0.8048159375          0.1697
H78        H    0.4859699291    0.2850956040    0.6729452163          0.1697
H79        H    0.5267098800    0.1839933742    0.7358157687          0.1697
C80        C    0.7269879777    0.4268796234    0.7413954121          0.1697
C81        C    0.6868005811    0.4274709492    0.7410047235          0.1697
C82        C    0.6680606780    0.4475247619    0.7784646004          0.1697
C83        C    0.6895081715    0.4669872487    0.8163151658          0.1697
C84        C    0.7296955681    0.4663959229    0.8167058543          0.1697
C85        C    0.7484354712    0.4463421102    0.7792459775          0.1697
H86        H    0.6709194836    0.4130623123    0.7129827553          0.1697
H87        H    0.6756357757    0.4818322788    0.8440452045          0.1697
H88        H    0.7781889645    0.4459057171    0.7795379070          0.1697
C89        C    0.9098713546    0.7270763160    0.7590590278          0.1697
C90        C    0.9090977235    0.7672563629    0.7577688710          0.1697
C91        C    0.9280946522    0.7882660990    0.7191480681          0.1697
C92        C    0.9478652119    0.7690957881    0.6818174220          0.1697
C93        C    0.9486388429    0.7289157412    0.6831075789          0.1697
C94        C    0.9296419143    0.7079060051    0.7217283818          0.1697
H95        H    0.8944609137    0.7814515914    0.7854058074          0.1697
H96        H    0.9619278733    0.7846484499    0.6532279965          0.1697
H97        H    0.9302160627    0.6781581148    0.7226808709          0.1697
C98        C    0.9319777292    0.9773004537    0.7332639677         -0.8045
C99        C    0.9599266486    0.9501041543    0.7330876762         -0.8049
C100       C    0.9990658410    0.9623008630    0.7330977448         -1.0101
C101       C    0.0102561140    0.0016938712    0.7332841049         -0.8045
C102       C    0.9823071946    0.0288901706    0.7334603964         -0.8049
C103       C    0.9431680022    0.0166934619    0.7334503278         -1.0101
H104       H    0.9224773511    0.0368305212    0.7335808551         -0.7844
H105       H    0.0197564921    0.9421638037    0.7329672175         -0.7844
C106       C    0.2363791702    0.0561061273    0.7503404001          0.1697
C107       C    0.1963416423    0.0574255127    0.7468826309          0.1697
C108       C    0.1725359028    0.0387456550    0.7830331611          0.1697
C109       C    0.1887676912    0.0187464120    0.8226414606          0.1697
C110       C    0.2288052191    0.0174270266    0.8260992298          0.1697
C111       C    0.2526109585    0.0361068843    0.7899486996          0.1697
H112       H    0.1843219027    0.0722316627    0.7175591399          0.1697
H113       H    0.1711452607    0.0049184654    0.8494022427          0.1697
H114       H    0.2822531287    0.0351286809    0.7925114085          0.1697
C115       C    0.0316390727    0.2516739084    0.7611743408          0.1697
C116       C    0.0325417786    0.2115000917    0.7601745375          0.1697
C117       C    0.0135004790    0.1902609441    0.7217914640          0.1697
C118       C    0.9935564733    0.2091956133    0.6844081938          0.1697
C119       C    0.9926537674    0.2493694300    0.6854079971          0.1697
C120       C    0.0116950671    0.2706085775    0.7237910705          0.1697
H121       H    0.0473070050    0.1974793164    0.7878504539          0.1697
H122       H    0.9794609658    0.1934731274    0.6559947498          0.1697
H123       H    0.0110253482    0.3003518387    0.7245285982          0.1697
C124       C    0.7078333133    0.9223064619    0.7504757283          0.1697
C125       C    0.7478979978    0.9212498477    0.7470675110          0.1697
C126       C    0.7715664859    0.9400919086    0.7832330392          0.1697
C127       C    0.7551702896    0.9599905837    0.8228067846          0.1697
C128       C    0.7151056051    0.9610471979    0.8262150019          0.1697
C129       C    0.6914371170    0.9422051370    0.7900494737          0.1697
H130       H    0.7600394556    0.9065181699    0.7177696050          0.1697
H131       H    0.7726911185    0.9739386027    0.8495786691          0.1697
H132       H    0.6617748303    0.9429887957    0.7925754953          0.1697
C133       C    0.9549963876    0.2464732147    0.1928304528          0.1697
C134       C    0.9561140789    0.2063267668    0.1942836823          0.1697
C135       C    0.9372895030    0.1852584376    0.2329873210          0.1697
C136       C    0.9173472358    0.2043365563    0.2702377302          0.1697
C137       C    0.9162295445    0.2444830042    0.2687845007          0.1697
C138       C    0.9350541204    0.2655513334    0.2300808620          0.1697
H139       H    0.9708780336    0.1921997934    0.1667061592          0.1697
H140       H    0.9034121602    0.1887405204    0.2988884758          0.1697
H141       H    0.9342252414    0.2952743427    0.2290076395          0.1697
C142       C    0.9333245978    0.9984132074    0.2802181218         -0.8045
C143       C    0.9621207370    0.0284477361    0.2805722411         -0.8049
C144       C    0.0009565315    0.0201522956    0.2805453305         -1.0101
C145       C    0.0109961869    0.9818223263    0.2801643007         -0.8045
C146       C    0.9822000476    0.9517877976    0.2798101814         -0.8049
C147       C    0.9433642531    0.9600832381    0.2798370920         -1.0101
H148       H    0.9220462971    0.9378450257    0.2795748995         -0.7844
H149       H    0.0222744875    0.0423905080    0.2808075230         -0.7844
C150       C    0.7105395111    0.9965476880    0.3200260286          0.1697
C151       C    0.7506149981    0.9954850197    0.3231976313          0.1697
C152       C    0.7741556107    0.0142171081    0.2868075351          0.1697
C153       C    0.7576207364    0.0340118647    0.2472458362          0.1697
C154       C    0.7175452494    0.0350745329    0.2440742335          0.1697
C155       C    0.6940046368    0.0163424446    0.2804643297          0.1697
H156       H    0.7628591243    0.9808302756    0.3524866021          0.1697
H157       H    0.7750469042    0.0478784755    0.2203077130          0.1697
H158       H    0.6643343428    0.0171305779    0.2781134821          0.1697
C159       C    0.9907102207    0.7327137970    0.1878406737          0.1697
C160       C    0.9899016116    0.7728817024    0.1895532128          0.1697
C161       C    0.0087683535    0.7936577382    0.2284793586          0.1697
C162       C    0.0284437044    0.7742658687    0.2656929651          0.1697
C163       C    0.0292523135    0.7340979634    0.2639804260          0.1697
C164       C    0.0103855717    0.7133219275    0.2250542802          0.1697
H165       H    0.9753352853    0.7872409567    0.1620029544          0.1697
H166       H    0.0424099938    0.7896455316    0.2945084236          0.1697
H167       H    0.0109856087    0.6835830102    0.2237890802          0.1697
C168       C    0.2341403192    0.9815455812    0.3202092380          0.1697
C169       C    0.1941031404    0.9829473312    0.3235073682          0.1697
C170       C    0.1703555885    0.9644880295    0.2871162233          0.1697
C171       C    0.1866452154    0.9446269777    0.2474269483          0.1697
C172       C    0.2266823941    0.9432252277    0.2441288181          0.1697
C173       C    0.2504299460    0.9616845295    0.2805199630          0.1697
H174       H    0.1820405813    0.9976511798    0.3528907967          0.1697
H175       H    0.1690658588    0.9309622998    0.2204880488          0.1697
H176       H    0.2800718618    0.9606453589    0.2780754340          0.1697
O177       O    0.1455550743    0.3838447601    0.9619260464         -1.5568
O178       O    0.0893416822    0.3267319598    0.0476056365         -1.5666
O179       O    0.0964376006    0.3286603538    0.9541434639         -1.4528
O180       O    0.1384586420    0.3819162204    0.0553950319         -1.5369
O181       O    0.0963635678    0.4191996928    0.0510064942         -1.5325
O182       O    0.0543461742    0.3659477867    0.9497555023          -1.445
O183       O    0.0472466080    0.3640154322    0.0432170988         -1.5701
O184       O    0.1034600001    0.4211282324    0.9575375087         -1.5579
Cu185     Cu    0.1212880892    0.3518842318    0.0051682116          1.0456
Cu186     Cu    0.0715135930    0.3959759605    0.9999749336          1.0433
C187       C    0.1327952163    0.4109077667    0.9470978959          0.1052
C188       C    0.0600064660    0.3369524256    0.0580452493          0.0966
C189       C    0.0692004587    0.3394532490    0.9370200492           0.018
C190       C    0.1236012236    0.4084069433    0.0681230959          0.0807
O191       O    0.5831429067    0.1344909413    0.0514855713         -1.5568
O192       O    0.6285154193    0.0742139865    0.9662044266         -1.5666
O193       O    0.6267629918    0.0806779567    0.0597219132         -1.4528
O194       O    0.5848954581    0.1280264947    0.9579612685         -1.5369
O195       O    0.6311326471    0.1662785626    0.9551895765         -1.5325
O196       O    0.6729969266    0.1189338836    0.0569496236          -1.445
O197       O    0.6747526082    0.1124660545    0.9634327346         -1.5701
O198       O    0.6293800957    0.1727430092    0.0487138793         -1.5579
Cu199     Cu    0.6016111634    0.1008598853    0.0090960555          1.0456
Cu200     Cu    0.6562843515    0.1460971104    0.0058222504          1.0433
C201       C    0.5995723306    0.1625048401    0.0626747662          0.1052
C202       C    0.6583231844    0.0844521556    0.9522435397          0.0966
C203       C    0.6560489397    0.0928260413    0.0733405230           0.018
C204       C    0.6018465752    0.1541309544    0.9415777829          0.0807
O205       O    0.8545791927    0.6557368239    0.0465507915         -1.5568
O206       O    0.7977142435    0.5978593979    0.9623972028         -1.5666
O207       O    0.8055913189    0.6005716286    0.0557278014         -1.4528
O208       O    0.8467015377    0.6530243981    0.9532133905         -1.5369
O209       O    0.8888031412    0.6157526760    0.9487567311         -1.5325
O210       O    0.8476964234    0.5633039874    0.0512704786          -1.445
O211       O    0.8398158470    0.5605876758    0.9579405433         -1.5701
O212       O    0.8966807962    0.6184651018    0.0420941321         -1.5579
Cu213     Cu    0.8223029668    0.6301975712    0.0048788510          1.0456
Cu214     Cu    0.8720920729    0.5861269285    0.9996124838          1.0433
C215       C    0.8840148588    0.6456339976    0.0567312304          0.1052
C216       C    0.8103801809    0.5706905021    0.9477601044          0.0966
C217       C    0.8205834061    0.5742083588    0.0686150481           0.018
C218       C    0.8738116337    0.6421161409    0.9358762867          0.0807
O219       O    0.3602456292    0.8431675128    0.0496574521         -1.5568
O220       O    0.3147842749    0.9036268749    0.9646959868         -1.5666
O221       O    0.3169077814    0.8971878164    0.0582004954         -1.4528
O222       O    0.3581219718    0.8496070459    0.9561461282         -1.5369
O223       O    0.3117209987    0.8115445993    0.9537175248         -1.5325
O224       O    0.2705100422    0.8591214955    0.0557712716          -1.445
O225       O    0.2683833019    0.8655644284    0.9622673833         -1.5701
O226       O    0.3138446562    0.8051050662    0.0472288487         -1.5579
Cu227     Cu    0.3417478983    0.8768724743    0.0073964771          1.0456
Cu228     Cu    0.2868810327    0.8318594668    0.0045283584          1.0433
C229       C    0.3437474146    0.8152215332    0.0609710619          0.1052
C230       C    0.2848815165    0.8935104079    0.9509537735          0.0966
C231       C    0.2876362588    0.8851687580    0.0720339159           0.018
C232       C    0.3409926722    0.8235631832    0.9398909196          0.0807
O233       O    0.1107541630    0.5829754522    0.4599761293         -1.5568
O234       O    0.0514678759    0.6297847737    0.5450500003         -1.5666
O235       O    0.0586894384    0.6286057830    0.4516093958         -1.4528
O236       O    0.1035320687    0.5841545252    0.5534235442         -1.5369
O237       O    0.1432164386    0.6291465147    0.5573859342         -1.5325
O238       O    0.0983775374    0.6735943739    0.4555723908          -1.445
O239       O    0.0911522457    0.6747767632    0.5490123902         -1.5701
O240       O    0.1504385328    0.6279674417    0.4639385193         -1.5579
Cu241     Cu    0.0774877727    0.6022757957    0.5021533441          1.0456
Cu242     Cu    0.1244186359    0.6554764197    0.5068351754          1.0433
C243       C    0.1393381762    0.5985704229    0.4494128606          0.1052
C244       C    0.0625682325    0.6591817925    0.5595756589          0.0966
C245       C    0.0719229505    0.6576499642    0.4385782105           0.018
C246       C    0.1299834581    0.6001022512    0.5704103090          0.0807
O247       O    0.3248422683    0.1022940943    0.4643875512         -1.5568
O248       O    0.3835735583    0.1570144285    0.5498513263         -1.5666
O249       O    0.3813985149    0.1497642659    0.4564157506         -1.4528
O250       O    0.3270174678    0.1095447911    0.5578299370         -1.5369
O251       O    0.3628743633    0.0662083921    0.5623635537         -1.5325
O252       O    0.4172512306    0.1064244785    0.4609499427          -1.445
O253       O    0.4194304539    0.1136780295    0.5543849431         -1.5701
O254       O    0.3606991639    0.0589576954    0.4689211679         -1.5579
Cu255     Cu    0.3509375961    0.1336106329    0.5067076026          1.0456
Cu256     Cu    0.3933351261    0.0823614910    0.5120648917          1.0433
C257       C    0.3341117750    0.0725572257    0.4540524157          0.1052
C258       C    0.4101609472    0.1434148982    0.5647200786 0.06860000000000001
C259       C    0.4073386243    0.1340236380    0.4437290926           0.018
C260       C    0.3369340979    0.0819484859    0.5750434017          0.0807
O261       O    0.8434669255    0.3025722205    0.4553575564         -1.5568
O262       O    0.7981432216    0.3463373206    0.5573149386         -1.5666
O263       O    0.7914524739    0.3482480345    0.4638320898         -1.4528
O264       O    0.8501581555    0.3006613637    0.5488472198         -1.5369
O265       O    0.8899469583    0.3456065805    0.5457997953         -1.5325
O266       O    0.8312450024    0.3931898493    0.4607840546          -1.445
O267       O    0.8379320244    0.3912825374    0.5542675141         -1.5701
O268       O    0.8832557283    0.3475174373    0.4523101319         -1.5579
Cu269     Cu    0.8171726163    0.3203546524    0.5066167477          1.0456
Cu270     Cu    0.8642263336    0.3735001055    0.5030083229          1.0433
C271       C    0.8700443300    0.3185926849    0.4387999697          0.1052
C272       C    0.8113546198    0.3752620730    0.5708251008          0.0966
C273       C    0.8026940096    0.3777311607    0.4497716988           0.018
C274       C    0.8787049402    0.3161235973    0.5598533718          0.0807
O275       O    0.5271355849    0.8630431330    0.5542607273         -1.5568
O276       O    0.5862399240    0.9177175571    0.4691678177         -1.5666
O277       O    0.5296527508    0.8703350744    0.4608338649         -1.4528
O278       O    0.5837268792    0.9104290742    0.5625952859         -1.5369
O279       O    0.6195304558    0.8670364378    0.5582591348         -1.5325
O280       O    0.5654560866    0.8269419784    0.4565045293          -1.445
O281       O    0.6220435006    0.8743249207    0.4648316667         -1.5701
O282       O    0.5629391615    0.8196504967    0.5499245762         -1.5579
Cu283     Cu    0.5534218377    0.8943414952    0.5121072082          1.0456
Cu284     Cu    0.5957572478    0.8430265585    0.5069851857          1.0433
C285       C    0.5363227540    0.8332844162    0.5646386553          0.1052
C286       C    0.6128563315    0.9040836375    0.4544537386          0.0966
C287       C    0.5395793100    0.8427276958    0.4436700558           0.018
C288       C    0.6095997755    0.8946403579    0.5754223381          0.0807
C759       C    0.2543542442    0.0441257424    0.3617441195          0.1697
C760       C    0.2598809729    0.0049792625    0.3546711839          0.1697
C761       C    0.2896527759    0.9879049235    0.3800578912          0.1697
C762       C    0.3138978501    0.0099770645    0.4125175343          0.1697
C763       C    0.3083711213    0.0491235445    0.4195904699          0.1697
C764       C    0.2785993183    0.0661978834    0.3942037625          0.1697
H765       H    0.2323153770    0.0567651882    0.3429513621          0.1697
H766       H    0.2937445831    0.9589282978    0.3748233328          0.1697
H767       H    0.3359367172    0.9973376188    0.4313102917          0.1697
H768       H    0.2745075112    0.0951745092    0.3994383210          0.1697
C749       C    0.2957402768    0.9050372832    0.1570553601          0.1697
C750       C    0.2727364679    0.8993602988    0.1141014381          0.1697
C751       C    0.2341555176    0.9085200085    0.1151274450          0.1697
C752       C    0.2185783761    0.9233567026    0.1591073738          0.1697
C753       C    0.2415821850    0.9290336869    0.2020612958          0.1697
C754       C    0.2801631353    0.9198739772    0.2010352890          0.1697
H755       H    0.3243002010    0.8982567188    0.1562958485          0.1697
H756       H    0.2171269590    0.9043182148    0.0833331370          0.1697
H757       H    0.1900184519    0.9301372669    0.1598668854          0.1697
H758       H    0.2971916939    0.9240757710    0.2328295969          0.1697
C739       C    0.0648373734    0.7338284513    0.3423480943          0.1697
C740       C    0.0399059346    0.7150111142    0.3075724312          0.1697
C741       C    0.0256561932    0.6770566267    0.3165036551          0.1697
C742       C    0.0363378906    0.6579194763    0.3602105421          0.1697
C743       C    0.0612693295    0.6767368134    0.3949862052          0.1697
C744       C    0.0755190709    0.7146913009    0.3860549813          0.1697
H745       H    0.0753858833    0.7619246303    0.3357366689          0.1697
H746       H    0.0072015798    0.6631268994    0.2907631156          0.1697
H747       H    0.0257893807    0.6298232972    0.3668219676          0.1697
H748       H    0.0939736843    0.7286210281    0.4117955209          0.1697
C729       C    0.9458705981    0.6525024088    0.1055884447          0.1697
C730       C    0.9116004346    0.6681480635    0.0906289502          0.1697
C731       C    0.9030923763    0.7048195520    0.1073264576          0.1697
C732       C    0.9288544815    0.7258453858    0.1389834594          0.1697
C733       C    0.9631246450    0.7101997312    0.1539429539          0.1697
C734       C    0.9716327033    0.6735282426    0.1372454466          0.1697
H735       H    0.9521687711    0.6253559822    0.0932279523          0.1697
H736       H    0.8777254539    0.7164015705    0.0962540213          0.1697
H737       H    0.9225563085    0.7529918124    0.1513439518          0.1697
H738       H    0.9969996257    0.6619462241    0.1483178828          0.1697
C719       C    0.6294582957    0.9657646291    0.4090251155          0.1697
C720       C    0.6379708400    0.9278562992    0.4198921501          0.1697
C721       C    0.6702104656    0.9124073328    0.3981069182          0.1697
C722       C    0.6939375470    0.9348666964    0.3654546517          0.1697
C723       C    0.6854250027    0.9727750264    0.3545876171          0.1697
C724       C    0.6531853770    0.9882239927    0.3763728490          0.1697
H725       H    0.6055925988    0.9772008770    0.4251518457          0.1697
H726       H    0.6765124410    0.8843472328    0.4061499691          0.1697
H727       H    0.7178032439    0.9234304486    0.3493279216          0.1697
H728       H    0.6468834017    0.0162840928    0.3683297981          0.1697
C709       C    0.7095010669    0.0881462392    0.1905251895          0.1697
C710       C    0.7025892910    0.0491197522    0.2025516400          0.1697
C711       C    0.6798853187    0.0249238002    0.1707338287          0.1697
C712       C    0.6640931222    0.0397543351    0.1268895669          0.1697
C713       C    0.6710048981    0.0787808220    0.1148631165          0.1697
C714       C    0.6937088705    0.1029767740    0.1466809278          0.1697
H715       H    0.7263079036    0.1060575283    0.2140786343          0.1697
H716       H    0.6747685282    0.9960357675    0.1796347576          0.1697
H717       H    0.6472862856    0.0218430459    0.1033361222          0.1697
H718       H    0.6988256609    0.1318648067    0.1377799988          0.1697
C699       C    0.0701583335    0.9650469259    0.2391289562          0.1697
C700       C    0.0509751692    0.9774736180    0.2819083508          0.1697
C701       C    0.0714927234    0.9855818701    0.3264196566          0.1697
C702       C    0.1111934419    0.9812634299    0.3281515678          0.1697
C703       C    0.1303766062    0.9688367377    0.2853721732          0.1697
C704       C    0.1098590520    0.9607284857    0.2408608674          0.1697
H705       H    0.0549700142    0.9590447133    0.2061790286          0.1697
H706       H    0.0572940628    0.9947803201    0.3580862211          0.1697
H707       H    0.1263817613    0.9872656425    0.3611014954          0.1697
H708       H    0.1240577127    0.9515300357    0.2091943029          0.1697
C689       C    0.0263251791    0.8980435790    0.2689770909          0.1697
C690       C    0.9890692630    0.9109033904    0.2665386360          0.1697
C691       C    0.9582282845    0.8855825793    0.2517063150          0.1697
C692       C    0.9646432220    0.8474019568    0.2393124490          0.1697
C693       C    0.0018991381    0.8345421454    0.2417509040          0.1697
C694       C    0.0327401166    0.8598629565    0.2565832249          0.1697
H695       H    0.0491555138    0.9167875561    0.2799568610          0.1697
H696       H    0.9306506118    0.8951005646    0.2499009099          0.1697
H697       H    0.9418128873    0.8286579797    0.2283326789          0.1697
H698       H    0.0603177893    0.8503449712    0.2583886300          0.1697
C679       C    0.8678666160    0.9706256293    0.2716983770          0.1697
C680       C    0.8935049224    0.0023669059    0.2818666107          0.1697
C681       C    0.8793784107    0.0380564344    0.2936810621          0.1697
C682       C    0.8396135925    0.0420046862    0.2953272799          0.1697
C683       C    0.8139752861    0.0102634095    0.2851590462          0.1697
C684       C    0.8281017978    0.9745738810    0.2733445948          0.1697
H685       H    0.8783239040    0.9442061082    0.2629526143          0.1697
H686       H    0.8983553469    0.0615523441    0.3012079264          0.1697
H687       H    0.8291563046    0.0684242073    0.3040730426          0.1697
H688       H    0.8091248616    0.9510779714    0.2658177305          0.1697
C669       C    0.9319652771    0.2744314676    0.3472582799          0.1697
C670       C    0.9049141892    0.2626398403    0.3104382088          0.1697
C671       C    0.8660858493    0.2697462172    0.3169721641          0.1697
C672       C    0.8543085974    0.2886442215    0.3603261905          0.1697
C673       C    0.8813596853    0.3004358488    0.3971462617          0.1697
C674       C    0.9201880252    0.2933294718    0.3906123064          0.1697
H675       H    0.9607083339    0.2691709028    0.3424214559          0.1697
H676       H    0.8460615013    0.2610183215    0.2897182850          0.1697
H677       H    0.8255655406    0.2939047862    0.3651630145          0.1697
H678       H    0.9402123732    0.3020573675    0.4178661854          0.1697
C659       C    0.0223056314    0.2669694624    0.1610982698          0.1697
C660       C    0.9824988302    0.2701699812    0.1575298190          0.1697
C661       C    0.9676946256    0.2949133390    0.1218694002          0.1697
C662       C    0.9926972222    0.3164561779    0.0897774323          0.1697
C663       C    0.0325040234    0.3132556591    0.0933458831          0.1697
C664       C    0.0473082280    0.2885123013    0.1290063019          0.1697
H665       H    0.0332645880    0.2486529507    0.1874962421          0.1697
H666       H    0.9382293044    0.2972831347    0.1192269171          0.1697
H667       H    0.9817382656    0.3347726895    0.0633794600          0.1697
H668       H    0.0767735492    0.2861425056    0.1316487850          0.1697
C649       C    0.9130283513    0.1171279783    0.2424694371          0.1697
C650       C    0.9436258193    0.1452442280    0.2451298148          0.1697
C651       C    0.9803025880    0.1349693366    0.2594401587          0.1697
C652       C    0.9863818887    0.0965781954    0.2710901250          0.1697
C653       C    0.9557844207    0.0684619458    0.2684297473          0.1697
C654       C    0.9191076520    0.0787368372    0.2541194034          0.1697
H655       H    0.8858780160    0.1247340668    0.2318760657          0.1697
H656       H    0.0029518858    0.1557805595    0.2614098137          0.1697
H657       H    0.0135322240    0.0889721070    0.2816834964          0.1697
H658       H    0.8964583542    0.0579256143    0.2521497485          0.1697
C639       C    0.6977801833    0.9012259883    0.6604693142          0.1697
C640       C    0.6823761642    0.9151368114    0.7051107708          0.1697
C641       C    0.6433125252    0.9223842330    0.7075904898          0.1697
C642       C    0.6196529055    0.9157208316    0.6654287522          0.1697
C643       C    0.6350569247    0.9018100085    0.6207872956          0.1697
C644       C    0.6741205636    0.8945625868    0.6183075766          0.1697
H645       H    0.7266974225    0.8958610139    0.6586336780          0.1697
H646       H    0.6319092887    0.9326812042    0.7406340159          0.1697
H647       H    0.5907356663    0.9210858060    0.6672643884          0.1697
H648       H    0.6855238001    0.8842656157    0.5852640506          0.1697
C629       C    0.6792482974    0.0220952591    0.8374154712          0.1697
C630       C    0.7002245053    0.9933882195    0.8592435911          0.1697
C631       C    0.7076906026    0.9940426371    0.9110573907          0.1697
C632       C    0.6941804921    0.0234040944    0.9410430703          0.1697
C633       C    0.6732042842    0.0521111341    0.9192149504          0.1697
C634       C    0.6657381868    0.0514567164    0.8674011509          0.1697
H635       H    0.6737214461    0.0216108200    0.7990598014          0.1697
H636       H    0.7232173534    0.9727938092    0.9272161272          0.1697
H637       H    0.6997073433    0.0238885335    0.9793987401          0.1697
H638       H    0.6502114360    0.0727055444    0.8512424143          0.1697
C619       C    0.9004269888    0.2919752478    0.6432989603          0.1697
C620       C    0.9080834516    0.2989129062    0.5922241129          0.1697
C621       C    0.9433358166    0.2896841720    0.5715558370          0.1697
C622       C    0.9709317188    0.2735177794    0.6019624085          0.1697
C623       C    0.9632752560    0.2665801211    0.6530372559          0.1697
C624       C    0.9280228910    0.2758088553    0.6737055318          0.1697
H625       H    0.8743310823    0.2988069082    0.6585988529          0.1697
H626       H    0.9490042188    0.2948191100    0.5337497623          0.1697
H627       H    0.9970276254    0.2666861190    0.5866625159          0.1697
H628       H    0.9223544889    0.2706739173    0.7115116065          0.1697
C609       C    0.0757243817    0.2968493031    0.8080524386          0.1697
C610       C    0.0411688463    0.2739445787    0.8057885037          0.1697
C611       C    0.0158642303    0.2726588543    0.8468332602          0.1697
C612       C    0.0251151497    0.2942778542    0.8901419515          0.1697
C613       C    0.0596706851    0.3171825787    0.8924058863          0.1697
C614       C    0.0849753011    0.3184683031    0.8513611299          0.1697
H615       H    0.0944563702    0.2978010732    0.7776686578          0.1697
H616       H    0.9902855449    0.2557048180    0.8451588026          0.1697
H617       H    0.0063831612    0.2933260842    0.9205257322          0.1697
H618       H    0.1105539864    0.3354223394    0.8530355874          0.1697
C599       C    0.3023799974    0.0697792993    0.7112421413          0.1697
C600       C    0.2626222656    0.0628505356    0.7045909180          0.1697
C601       C    0.2468989023    0.0620985428    0.6560406776          0.1697
C602       C    0.2709332707    0.0682753139    0.6141416605          0.1697
C603       C    0.3106910024    0.0752040776    0.6207928838          0.1697
C604       C    0.3264143658    0.0759560704    0.6693431242          0.1697
H605       H    0.3140193703    0.0703359693    0.7471819297          0.1697
H606       H    0.2174698729    0.0569698727    0.6511159293          0.1697
H607       H    0.2592938978    0.0677186439    0.5782018722          0.1697
H608       H    0.3558433952    0.0810847405    0.6742678726          0.1697
C589       C    0.2724003102    0.9638578100    0.9361990432          0.1697
C590       C    0.2702165185    0.9259169156    0.9183019810          0.1697
C591       C    0.2546595760    0.9175278229    0.8706294395          0.1697
C592       C    0.2412864253    0.9470796246    0.8408539602          0.1697
C593       C    0.2434702170    0.9850205190    0.8587510224          0.1697
C594       C    0.2590271595    0.9934096117    0.9064235638          0.1697
H595       H    0.2839164884    0.9700679176    0.9714891063          0.1697
H596       H    0.2530426488    0.8894438422    0.8573805890          0.1697
H597       H    0.2297702471    0.9408695170    0.8055638970          0.1697
H598       H    0.2606440867    0.0214935924    0.9196724143          0.1697
C579       C    0.8693694401    0.9945900540    0.7715894113          0.1697
C580       C    0.8904826644    0.9676753741    0.7461899311          0.1697
C581       C    0.8728853319    0.9317815012    0.7328490232          0.1697
C582       C    0.8341747751    0.9228023083    0.7449075956          0.1697
C583       C    0.8130615508    0.9497169882    0.7703070758          0.1697
C584       C    0.8306588832    0.9856108611    0.7836479837          0.1697
H585       H    0.8823960368    0.0211608431    0.7814651484          0.1697
H586       H    0.8885127086    0.9118582148    0.7140479960          0.1697
H587       H    0.8211481783    0.8962315192    0.7350318585          0.1697
H588       H    0.8150315065    0.0055341475    0.8024490109          0.1697
C569       C    0.0283062840    0.0851977564    0.7304610880          0.1697
C570       C    0.9901822721    0.0696299443    0.7305144499          0.1697
C571       C    0.9597798249    0.0940077453    0.7276792921          0.1697
C572       C    0.9675013896    0.1339533583    0.7247907724          0.1697
C573       C    0.0056254015    0.1495211704    0.7247374105          0.1697
C574       C    0.0360278487    0.1251433694    0.7275725683          0.1697
H575       H    0.0508119916    0.0671518518    0.7325598412          0.1697
H576       H    0.9315596047    0.0824852776    0.7277187007          0.1697
H577       H    0.9449956819    0.1519992629    0.7226920192          0.1697
H578       H    0.0642480689    0.1366658371    0.7275331597          0.1697
C559       C    0.0773220467    0.9817150741    0.7541117338          0.1697
C560       C    0.0526317368    0.0113690897    0.7462749231          0.1697
C561       C    0.0667056984    0.0498737787    0.7503218223          0.1697
C562       C    0.1054699701    0.0587244521    0.7622055322          0.1697
C563       C    0.1301602801    0.0290704365    0.7700423429          0.1697
C564       C    0.1160863184    0.9905657475    0.7659954437          0.1697
H565       H    0.0669036595    0.9532116030    0.7511159772          0.1697
H566       H    0.0484304641    0.0718247942    0.7445211709          0.1697
H567       H    0.1158883573    0.0872279232    0.7652012887          0.1697
H568       H    0.1343615527    0.9686147320    0.7717960950          0.1697
C549       C    0.0100303846    0.6954428797    0.6737289230          0.1697
C550       C    0.9780884428    0.7108902177    0.6511758216          0.1697
C551       C    0.9736615959    0.7094961049    0.5987885174          0.1697
C552       C    0.0011766908    0.6926546540    0.5689543148          0.1697
C553       C    0.0331186326    0.6772073160    0.5915074162          0.1697
C554       C    0.0375454795    0.6786014288    0.6438947203          0.1697
H555       H    0.0133074012    0.6964748852    0.7125091351          0.1697
H556       H    0.9500181440    0.7209301255    0.5820931340          0.1697
H557       H    0.9978996742    0.6916226485    0.5301741027          0.1697
H558       H    0.0611889314    0.6671674082    0.6605901038          0.1697
C539       C    0.8829755980    0.6684928032    0.8002252930          0.1697
C540       C    0.9007843004    0.7056663410    0.8036169995          0.1697
C541       C    0.9096501965    0.7217697663    0.8508593638          0.1697
C542       C    0.9007073902    0.7006996537    0.8947100215          0.1697
C543       C    0.8828986879    0.6635261158    0.8913183150          0.1697
C544       C    0.8740327918    0.6474226906    0.8440759507          0.1697
H545       H    0.8764125321    0.6565720858    0.7652536726          0.1697
H546       H    0.9228324152    0.7492859965    0.8533713881          0.1697
H547       H    0.9072704562    0.7126203711    0.9296816419          0.1697
H548       H    0.8608505731    0.6199064604    0.8415639264          0.1697
C529       C    0.9502049384    0.8911460030    0.6823360176          0.1697
C530       C    0.9518592290    0.9090883326    0.7295548576          0.1697
C531       C    0.9456649410    0.8871274562    0.7733367122          0.1697
C532       C    0.9378163623    0.8472242503    0.7698997267          0.1697
C533       C    0.9361620717    0.8292819207    0.7226808866          0.1697
C534       C    0.9423563598    0.8512427971    0.6788990320          0.1697
H535       H    0.9547903205    0.9074027556    0.6499260733          0.1697
H536       H    0.9468892450    0.9004076098    0.8082893154          0.1697
H537       H    0.9332309802    0.8309674977    0.8023096709          0.1697
H538       H    0.9411320558    0.8379626435    0.6439464289          0.1697
C519       C    0.7303902136    0.5207717472    0.8750130272          0.1697
C520       C    0.7500162339    0.4926628307    0.8497122669          0.1697
C521       C    0.7896638947    0.4904342960    0.8569322191          0.1697
C522       C    0.8096855353    0.5163146778    0.8894529315          0.1697
C523       C    0.7900595151    0.5444235942    0.9147536918          0.1697
C524       C    0.7504118542    0.5466521290    0.9075337396          0.1697
H525       H    0.7010406465    0.5224214418    0.8696683872          0.1697
H526       H    0.8041922599    0.4696281054    0.8382049148          0.1697
H527       H    0.8390351025    0.5146649832    0.8947975715          0.1697
H528       H    0.7358834890    0.5674583196    0.9262610439          0.1697
C509       C    0.7676493757    0.4405433667    0.6655556241          0.1697
C510       C    0.7486217092    0.4136435837    0.6976568892          0.1697
C511       C    0.7501436322    0.3741710653    0.6882115215          0.1697
C512       C    0.7706932218    0.3615983298    0.6466648888          0.1697
C513       C    0.7897208884    0.3884981127    0.6145636237          0.1697
C514       C    0.7881989653    0.4279706312    0.6240089914          0.1697
H515       H    0.7665227574    0.4697632830    0.6725476495          0.1697
H516       H    0.7360594692    0.3542586923    0.7119724649          0.1697
H517       H    0.7718198402    0.3323784135    0.6396728634          0.1697
H518       H    0.8022831284    0.4478830041    0.6002480480          0.1697
C499       C    0.5741623582    0.2351285920    0.8586026707          0.1697
C500       C    0.5579213600    0.2147826819    0.8174894691          0.1697
C501       C    0.5561510316    0.1744557401    0.8172557716          0.1697
C502       C    0.5706217014    0.1544747083    0.8581352756          0.1697
C503       C    0.5868626996    0.1748206184    0.8992484771          0.1697
C504       C    0.5886330280    0.2151475603    0.8994821747          0.1697
H505       H    0.5754728611    0.2649810036    0.8587756676          0.1697
H506       H    0.5441294465    0.1593944935    0.7868239185          0.1697
H507       H    0.5693111985    0.1246222968    0.8579622787          0.1697
H508       H    0.6006546132    0.2302088069    0.9299140277          0.1697
C489       C    0.4945415705    0.2002962770    0.6180373559          0.1697
C490       C    0.4804463527    0.2095580120    0.6656046380          0.1697
C491       C    0.4429757889    0.1968220341    0.6796199833          0.1697
C492       C    0.4196004428    0.1748243211    0.6460680464          0.1697
C493       C    0.4336956606    0.1655625861    0.5985007642          0.1697
C494       C    0.4711662245    0.1782985641    0.5844854190          0.1697
H495       H    0.5222795204    0.2097242088    0.6076623601          0.1697
H496       H    0.4325413729    0.2036771343    0.7148295600          0.1697
H497       H    0.3918624929    0.1653963893    0.6564430422          0.1697
H498       H    0.4816006404    0.1714434638    0.5492758423          0.1697
C479       C    0.1667680671    0.4995142934    0.8784727745          0.1697
C480       C    0.1931515218    0.4847612199    0.8449386028          0.1697
C481       C    0.1994322660    0.4454099776    0.8454303491          0.1697
C482       C    0.1793295554    0.4208118087    0.8794562671          0.1697
C483       C    0.1529461006    0.4355648822    0.9129904388          0.1697
C484       C    0.1466653565    0.4749161246    0.9124986925          0.1697
H485       H    0.1621186850    0.5286444339    0.8781087546          0.1697
H486       H    0.2189614042    0.4344885596    0.8206084900          0.1697
H487       H    0.1839789374    0.3916816683    0.8798202870          0.1697
H488       H    0.1271362183    0.4858375425    0.9373205516          0.1697
C469       C    0.1754746810    0.5956180981    0.6972852248          0.1697
C470       C    0.1942307116    0.5613270553    0.6933844193          0.1697
C471       C    0.1917085261    0.5398780710    0.6487554963          0.1697
C472       C    0.1704303101    0.5527201297    0.6080273789          0.1697
C473       C    0.1516742795    0.5870111726    0.6119281843          0.1697
C474       C    0.1541964650    0.6084601568    0.6565571073          0.1697
H475       H    0.1773417534    0.6114959176    0.7303222197          0.1697
H476       H    0.2055915935    0.5144952842    0.6458667216          0.1697
H477       H    0.1685632377    0.5368423102    0.5749903839          0.1697
H478       H    0.1403133976    0.6338429437    0.6594458820          0.1697
C459       C    0.5794340337    0.5003018304    0.7534495509          0.1697
C460       C    0.5504541903    0.4719979638    0.7655124846          0.1697
C461       C    0.5602379712    0.4356276205    0.7818444936          0.1697
C462       C    0.5990015955    0.4275611437    0.7861135689          0.1697
C463       C    0.6279814389    0.4558650102    0.7740506352          0.1697
C464       C    0.6181976580    0.4922353536    0.7577186261          0.1697
H465       H    0.5721914946    0.5272253313    0.7413596221          0.1697
H466       H    0.5387875037    0.4146760480    0.7907739511          0.1697
H467       H    0.6062441346    0.4006376427    0.7982034976          0.1697
H468       H    0.6396481255    0.5131869260    0.7487891686          0.1697
C449       C    0.4633448349    0.3803087133    0.7645405690          0.1697
C450       C    0.4912697887    0.4102865775    0.7553230876          0.1697
C451       C    0.5284799253    0.4019100131    0.7407521684          0.1697
C452       C    0.5377651081    0.3635555845    0.7353987306          0.1697
C453       C    0.5098401543    0.3335777203    0.7446162120          0.1697
C454       C    0.4726300177    0.3419542846    0.7591871312          0.1697
H455       H    0.4357996688    0.3865095466    0.7753268339          0.1697
H456       H    0.5491510544    0.4240992566    0.7339289602          0.1697
H457       H    0.5653102742    0.3573547511    0.7246124657          0.1697
H458       H    0.4519588885    0.3197650412    0.7660103394          0.1697
C439       C    0.3642756104    0.4747163800    0.7573936642          0.1697
C440       C    0.3927462437    0.5047274151    0.7630993784          0.1697
C441       C    0.3822632947    0.5423470616    0.7717718531          0.1697
C442       C    0.3433097125    0.5499556730    0.7747386136          0.1697
C443       C    0.3148390793    0.5199446380    0.7690328993          0.1697
C444       C    0.3253220282    0.4823249915    0.7603604246          0.1697
H445       H    0.3720357155    0.4468680703    0.7509737803          0.1697
H446       H    0.4033368245    0.5645623136    0.7759954770          0.1697
H447       H    0.3355496075    0.5778039827    0.7811584974          0.1697
H448       H    0.3042484985    0.4601097394    0.7561368008          0.1697
C429       C    0.3441363994    0.7693278976    0.8174915253          0.1697
C430       C    0.3833523875    0.7628607886    0.8142275481          0.1697
C431       C    0.4086545688    0.7763324678    0.8522399551          0.1697
C432       C    0.3947407619    0.7962712561    0.8935163393          0.1697
C433       C    0.3555247738    0.8027383652    0.8967803165          0.1697
C434       C    0.3302225925    0.7892666859    0.8587679095          0.1697
H435       H    0.3254062132    0.7593553559    0.7893524708          0.1697
H436       H    0.4376829046    0.7715459630    0.8498251737          0.1697
H437       H    0.4134709481    0.8062437979    0.9216553938          0.1697
H438       H    0.3011942567    0.7940531908    0.8611826909          0.1697
C419       C    0.4563867366    0.7657261353    0.6105538068          0.1697
C420       C    0.4622756457    0.7677212171    0.6626723196          0.1697
C421       C    0.4926988969    0.7914396314    0.6823089229          0.1697
C422       C    0.5172332390    0.8131629640    0.6498270136          0.1697
C423       C    0.5113443299    0.8111678822    0.5977085008          0.1697
C424       C    0.4809210788    0.7874494679    0.5780718974          0.1697
H425       H    0.4338656286    0.7481683481    0.5960176199          0.1697
H426       H    0.4970588092    0.7929171345    0.7208874823          0.1697
H427       H    0.5397543470    0.8307207512    0.6643632005          0.1697
H428       H    0.4765611664    0.7859719648    0.5394933381          0.1697
C409       C    0.4621037501    0.6351816629    0.7733517946          0.1697
C410       C    0.4315646192    0.6435191268    0.7416901509          0.1697
C411       C    0.4108199434    0.6137212253    0.7160997508          0.1697
C412       C    0.4206143985    0.5755858599    0.7221709943          0.1697
C413       C    0.4511535294    0.5672483961    0.7538326381          0.1697
C414       C    0.4718982052    0.5970462976    0.7794230382          0.1697
H415       H    0.4774601984    0.6572398497    0.7922953376          0.1697
H416       H    0.3882143307    0.6198916434    0.6926631047          0.1697
H417       H    0.4052579502    0.5535276731    0.7032274514          0.1697
H418       H    0.4945038179    0.5908758795    0.8028596842          0.1697
C399       C    0.1533994412    0.4822349105    0.1662878363          0.1697
C400       C    0.1891952634    0.4698077302    0.1809691478          0.1697
C401       C    0.2034158681    0.4371845787    0.1585330910          0.1697
C402       C    0.1818406504    0.4169886075    0.1214157228          0.1697
C403       C    0.1460448281    0.4294157878    0.1067344114          0.1697
C404       C    0.1318242235    0.4620389392    0.1291704681          0.1697
H405       H    0.1428725001    0.5063845161    0.1828963459          0.1697
H406       H    0.2299122585    0.4279849917    0.1693994355          0.1697
H407       H    0.1923675915    0.3928390019    0.1048072133          0.1697
H408       H    0.1053278330    0.4712385263    0.1183041236          0.1697
C389       C    0.1724189385    0.6037851373    0.3715177794          0.1697
C390       C    0.1574323349    0.5816995157    0.4119033090          0.1697
C391       C    0.1614298367    0.5419132049    0.4129344099          0.1697
C392       C    0.1804139421    0.5242125156    0.3735799812          0.1697
C393       C    0.1954005457    0.5462981373    0.3331944516          0.1697
C394       C    0.1914030439    0.5860844481    0.3321633507          0.1697
H395       H    0.1694597488    0.6332373414    0.3707544969          0.1697
H396       H    0.1503369326    0.5255642471    0.4428276680          0.1697
H397       H    0.1833731318    0.4947603115    0.3743432637          0.1697
H398       H    0.2024959480    0.6024334058    0.3022700926          0.1697
C379       C    0.4086942204    0.8030553459    0.1679460897          0.1697
C380       C    0.4038606029    0.7631708223    0.1752442924          0.1697
C381       C    0.3788222463    0.7407811458    0.1441339383          0.1697
C382       C    0.3586175072    0.7582759928    0.1057253815          0.1697
C383       C    0.3634511247    0.7981605163    0.0984271789          0.1697
C384       C    0.3884894813    0.8205501929    0.1295375330          0.1697
H385       H    0.4272291077    0.8196295220    0.1909758324          0.1697
H386       H    0.3752436274    0.7112580546    0.1495350574          0.1697
H387       H    0.3400826199    0.7417018166    0.0826956389          0.1697
H388       H    0.3920681003    0.8500732840    0.1241364139          0.1697
C369       C    0.4800570814    0.8138887636    0.3285041871          0.1697
C370       C    0.4824454498    0.7738623204    0.3284788566          0.1697
C371       C    0.5034671949    0.7562953167    0.3660214584          0.1697
C372       C    0.5221005714    0.7787547561    0.4035893907          0.1697
C373       C    0.5197122030    0.8187811993    0.4036147213          0.1697
C374       C    0.4986904579    0.8363482030    0.3660721194          0.1697
H375       H    0.4644955298    0.8268929092    0.3007129104          0.1697
H376       H    0.5052357220    0.7266673298    0.3660038969          0.1697
H377       H    0.5376621230    0.7657506105    0.4313806674          0.1697
H378       H    0.4969219308    0.8659761900    0.3660896809          0.1697
C359       C    0.7485288070    0.5507830562    0.1724384170          0.1697
C360       C    0.7561798582    0.5127076662    0.1837169380          0.1697
C361       C    0.7848981400    0.4947499456    0.1573441471          0.1697
C362       C    0.8059653708    0.5148676150    0.1196928351          0.1697
C363       C    0.7983143197    0.5529430050    0.1084143141          0.1697
C364       C    0.7695960378    0.5709007255    0.1347871050          0.1697
H365       H    0.7272698191    0.5640764337    0.1919611324          0.1697
H366       H    0.7905623297    0.4665661090    0.1656916337          0.1697
H367       H    0.8272243587    0.5015742375    0.1001701197          0.1697
H368       H    0.7639318481    0.5990845622    0.1264396184          0.1697
C349       C    0.8034831766    0.4290909656    0.3917988132          0.1697
C350       C    0.7855059156    0.3958104031    0.4131900912          0.1697
C351       C    0.7493139136    0.3816889585    0.3958147377          0.1697
C352       C    0.7310991725    0.4008480764    0.3570481062          0.1697
C353       C    0.7490764335    0.4341286389    0.3356568282          0.1697
C354       C    0.7852684355    0.4482500835    0.3530321816          0.1697
H355       H    0.8302746586    0.4395445025    0.4046610878          0.1697
H356       H    0.7360060635    0.3570543576    0.4116479358          0.1697
H357       H    0.7043076905    0.3903945395    0.3441858315          0.1697
H358       H    0.7985762856    0.4728846844    0.3371989835          0.1697
C339       C    0.3687563808    0.4671289694    0.2604145369          0.1697
C340       C    0.3933313303    0.5006089623    0.2588334073          0.1697
C341       C    0.3779401172    0.5368012132    0.2575265314          0.1697
C342       C    0.3379739547    0.5395134710    0.2578007851          0.1697
C343       C    0.3133990052    0.5060334780    0.2593819148          0.1697
C344       C    0.3287902183    0.4698412272    0.2606887907          0.1697
H345       H    0.3801498761    0.4403373032    0.2613819645          0.1697
H346       H    0.3961299204    0.5615841303    0.2563561435          0.1697
H347       H    0.3265804594    0.5663051372    0.2568333575          0.1697
H348       H    0.3106004151    0.4450583100    0.2618591786          0.1697
C329       C    0.4870914479    0.6331370528    0.2451597806          0.1697
C330       C    0.4508081126    0.6476533130    0.2515142235          0.1697
C331       C    0.4185115395    0.6224158616    0.2602871541          0.1697
C332       C    0.4224983017    0.5826621499    0.2627056420          0.1697
C333       C    0.4587816369    0.5681458897    0.2563511992          0.1697
C334       C    0.4910782101    0.5933833411    0.2475782685          0.1697
H335       H    0.5109993008    0.6518193220    0.2386655332          0.1697
H336       H    0.3916537216    0.6331599471    0.2649909678          0.1697
H337       H    0.3985904488    0.5639798807    0.2691998894          0.1697
H338       H    0.5179360280    0.5826392556    0.2428744548          0.1697
C319       C    0.5760502084    0.5128327001    0.2568721259          0.1697
C320       C    0.5520484083    0.4790325643    0.2601582412          0.1697
C321       C    0.5681007013    0.4432956447    0.2644607709          0.1697
C322       C    0.6081547945    0.4413588607    0.2654771853          0.1697
C323       C    0.6321565946    0.4751589964    0.2621910699          0.1697
C324       C    0.6161043015    0.5108959161    0.2578885402          0.1697
H325       H    0.5641673421    0.5392873029    0.2536871364          0.1697
H326       H    0.5503351622    0.4182757734    0.2668932779          0.1697
H327       H    0.6200376608    0.4149042578    0.2686621748          0.1697
H328       H    0.6338698407    0.5359157874    0.2554560332          0.1697
C309       C    0.5794896829    0.2237471089    0.1698307578          0.1697
C310       C    0.5399275832    0.2149293990    0.1758435598          0.1697
C311       C    0.5205280277    0.1883898858    0.1436003391          0.1697
C312       C    0.5406905720    0.1706680823    0.1053443165          0.1697
C313       C    0.5802526717    0.1794857922    0.0993315145          0.1697
C314       C    0.5996522271    0.2060253054    0.1315747351          0.1697
H315       H    0.5938503927    0.2433932421    0.1936991160          0.1697
H316       H    0.4912436882    0.1818622084    0.1480499734          0.1697
H317       H    0.5263298621    0.1510219491    0.0814759583          0.1697
H318       H    0.6289365666    0.2125529828    0.1271251009          0.1697
C299       C    0.4077887058    0.1889175321    0.3828977641          0.1697
C300       C    0.4265260094    0.1582421956    0.4037474188          0.1697
C301       C    0.4633350925    0.1503772853    0.3869400406          0.1697
C302       C    0.4814068720    0.1731877115    0.3492830077          0.1697
C303       C    0.4626695684    0.2038630480    0.3284333530          0.1697
C304       C    0.4258604853    0.2117279584    0.3452407312          0.1697
H305       H    0.3805404235    0.1947396086    0.3953395895          0.1697
H306       H    0.4772055429    0.1276712613    0.4023723489          0.1697
H307       H    0.5086551543    0.1673656350    0.3368411822          0.1697
H308       H    0.4119900348    0.2344339823    0.3298084228          0.1697
C289       C    0.4571701915    0.3451525692    0.2537773350          0.1697
C290       C    0.4937688600    0.3307252183    0.2515336817          0.1697
C291       C    0.5266858985    0.3561000800    0.2517198417          0.1697
C292       C    0.5230042685    0.3959022927    0.2541496548          0.1697
C293       C    0.4864056001    0.4103296436    0.2563933080          0.1697
C294       C    0.4534885616    0.3849547819    0.2562071481          0.1697
H295       H    0.4328030332    0.3263685807    0.2536395283          0.1697
H296       H    0.5537771445    0.3454218092    0.2500591034          0.1697
H297       H    0.5473714269    0.4146862812    0.2542874615          0.1697
H298       H    0.4263973155    0.3956330527    0.2578678864          0.1697
loop_
_geom_bond_atom_site_label_1
_geom_bond_atom_site_label_2
_geom_bond_distance
_geom_bond_site_symmetry_2
_ccdc_geom_bond_type
C1           C2 1.540       .   A
C1           C6 1.540       .   A
C1         C310 1.476       .   S
C2           C3 1.540       .   A
C2           H7 1.140       .   S
C3           C4 1.540       .   A
C3         C290 1.575       .   S
C4           C5 1.540       .   A
C4           H8 1.140       .   S
C5           C6 1.540       .   A
C5         C303 1.635       .   S
C6           H9 1.140       .   S
C10         C11 1.540       .   A
C10         C15 1.540       .   A
C10        C293 1.575       .   S
C11         C12 1.540       .   A
C11        C320 1.558       .   S
C12         C13 1.540       .   A
C12         H17 1.140       .   S
C13         C14 1.540       .   A
C13        C333 1.563       .   S
C14         C15 1.540       .   A
C14        C340 1.565       .   S
C15         H16 1.140       .   S
C18         C19 1.540       .   A
C18         C23 1.540       .   A
C18        C353 1.453       .   S
C19         C20 1.540       .   A
C19         H24 1.140       .   S
C20         C21 1.540       .   A
C20        C323 1.558       .   S
C21         C22 1.540       .   A
C21         H25 1.140       .   S
C22         C23 1.540       .   A
C22        C360 1.628       .   S
C23         H26 1.140       .   S
C27         C28 1.540       .   A
C27         C32 1.540       .   A
C27        C380 1.502       .   S
C28         C29 1.540       .   A
C28         H33 1.140       .   S
C29         C30 1.540       .   A
C29        C330 1.563       .   S
C30         C31 1.540       .   A
C30         H34 1.140       .   S
C31         C32 1.540       .   A
C31        C370 1.642       .   S
C32         H35 1.140       .   S
C36         C37 1.540       .   A
C36         C41 1.540       .   A
C36        C393 1.468       .   S
C37         C38 1.540       .   A
C37         H42 1.140       .   S
C38         C39 1.540       .   A
C38        C343 1.565       .   S
C39         C40 1.540       .   A
C39         H43 1.140       .   S
C40         C41 1.540       .   A
C40        C400 1.602       .   S
C41         H44 1.140       .   S
C45         C46 1.540       .   A
C45         C50 1.540       .   A
C45        C430 1.608       .   S
C46         C47 1.540       .   A
C46         H51 1.140       .   S
C47         C48 1.540       .   A
C47        C420 1.568       .   S
C48         C49 1.540       .   A
C48         H52 1.140       .   S
C49         C50 1.540       .   A
C49        C410 1.627       .   S
C50         H53 1.140       .   S
C54         C55 1.540       .   A
C54         C59 1.540       .   A
C54        C413 1.627       .   S
C55         C56 1.540       .   A
C55        C440 1.580       .   S
C56         C57 1.540       .   A
C56         H61 1.140       .   S
C57         C58 1.540       .   A
C57        C450 1.607       .   S
C58         C59 1.540       .   A
C58        C460 1.592       .   S
C59         H60 1.140       .   S
C62         C63 1.540       .   A
C62         C67 1.540       .   A
C62        C470 1.570       .   S
C63         C64 1.540       .   A
C63         H68 1.140       .   S
C64         C65 1.540       .   A
C64        C443 1.580       .   S
C65         C66 1.540       .   A
C65         H69 1.140       .   S
C66         C67 1.540       .   A
C66        C480 1.544       .   S
C67         H70 1.140       .   S
C71         C72 1.540       .   A
C71         C76 1.540       .   A
C71        C500 1.595       .   S
C72         C73 1.540       .   A
C72         H77 1.140       .   S
C73         C74 1.540       .   A
C73        C453 1.607       .   S
C74         C75 1.540       .   A
C74         H78 1.140       .   S
C75         C76 1.540       .   A
C75        C490 1.551       .   S
C76         H79 1.140       .   S
C80         C81 1.540       .   A
C80         C85 1.540       .   A
C80        C510 1.621       .   S
C81         C82 1.540       .   A
C81         H86 1.140       .   S
C82         C83 1.540       .   A
C82        C463 1.592       .   S
C83         C84 1.540       .   A
C83         H87 1.140       .   S
C84         C85 1.540       .   A
C84        C520 1.563       .   S
C85         H88 1.140       .   S
C89         C90 1.540       .   A
C89         C94 1.540       .   A
C89        C540 1.565       .   S
C90         C91 1.540       .   A
C90         H95 1.140       .   S
C91         C92 1.540       .   A
C91        C533 1.583       .   S
C92         C93 1.540       .   A
C92         H96 1.140       .   S
C93         C94 1.540       .   A
C93        C550 1.648       .   S
C94         H97 1.140       .   S
C98         C99 1.540       .   A
C98        C103 1.540       .   A
C98        C580 1.651       .   S
C99        C100 1.540       .   A
C99        C530 1.583       .   S
C100       C101 1.540       .   A
C100       H105 1.140       .   S
C101       C102 1.540       .   A
C101       C560 1.683       .   S
C102       C103 1.540       .   A
C102       C570 1.571       .   S
C103       H104 1.140       .   S
C106       C107 1.540       .   A
C106       C111 1.540       .   A
C106       C600 1.682       .   S
C107       C108 1.540       .   A
C107       H112 1.140       .   S
C108       C109 1.540       .   A
C108       C563 1.683   1_445   S
C109       C110 1.540       .   A
C109       H113 1.140       .   S
C110       C111 1.540       .   A
C110       C593 1.689       .   S
C111       H114 1.140       .   S
C115       C116 1.540       .   A
C115       C120 1.540       .   A
C115       C610 1.586       .   S
C116       C117 1.540       .   A
C116       H121 1.140       .   S
C117       C118 1.540       .   A
C117       C573 1.571   1_445   S
C118       C119 1.540       .   A
C118       H122 1.140       .   S
C119       C120 1.540       .   A
C119       C623 1.639       .   S
C120       H123 1.140       .   S
C124       C125 1.540       .   A
C124       C129 1.540       .   A
C124       C640 1.657       .   S
C125       C126 1.540       .   A
C125       H130 1.140       .   S
C126       C127 1.540       .   A
C126       C583 1.651       .   S
C127       C128 1.540       .   A
C127       H131 1.140       .   S
C128       C129 1.540       .   A
C128       C630 1.696       .   S
C129       H132 1.140       .   S
C133       C134 1.540       .   A
C133       C138 1.540       .   A
C133       C660 1.694       .   S
C134       C135 1.540       .   A
C134       H139 1.140       .   S
C135       C136 1.540       .   A
C135       C650 1.605       .   S
C136       C137 1.540       .   A
C136       H140 1.140       .   S
C137       C138 1.540       .   A
C137       C670 1.480       .   S
C138       H141 1.140       .   S
C142       C143 1.540       .   A
C142       C147 1.540       .   A
C142       C680 1.542       .   S
C143       C144 1.540       .   A
C143       C653 1.605   1_565   S
C144       C145 1.540       .   A
C144       H149 1.140       .   S
C145       C146 1.540       .   A
C145       C700 1.551       .   S
C146       C147 1.540       .   A
C146       C690 1.649       .   S
C147       H148 1.140       .   S
C150       C151 1.540       .   A
C150       C155 1.540       .   A
C150       C723 1.630       .   S
C151       C152 1.540       .   A
C151       H156 1.140       .   S
C152       C153 1.540       .   A
C152       C683 1.542   1_545   S
C153       C154 1.540       .   A
C153       H157 1.140       .   S
C154       C155 1.540       .   A
C154       C710 1.458       .   S
C155       H158 1.140       .   S
C159       C160 1.540       .   A
C159       C164 1.540       .   A
C159       C733 1.649       .   S
C160       C161 1.540       .   A
C160       H165 1.140       .   S
C161       C162 1.540       .   A
C161       C693 1.649   1_455   S
C162       C163 1.540       .   A
C162       H166 1.140       .   S
C163       C164 1.540       .   A
C163       C740 1.536       .   S
C164       H167 1.140       .   S
C168       C169 1.540       .   A
C168       C173 1.540       .   A
C168       C760 1.635       .   S
C169       C170 1.540       .   A
C169       H174 1.140       .   S
C170       C171 1.540       .   A
C170       C703 1.551   1_455   S
C171       C172 1.540       .   A
C171       H175 1.140       .   S
C172       C173 1.540       .   A
C172       C753 1.473       .   S
C173       H176 1.140       .   S
O177      Cu185 1.951       .   S
O177       C187 1.250       .   A
O178      Cu185 1.951       .   S
O178       C188 1.250       .   A
O179      Cu185 1.951       .   S
O179       C189 1.250       .   A
O180      Cu185 1.951       .   S
O180       C190 1.250       .   A
O181      Cu186 1.951       .   S
O181       C190 1.250       .   A
O182      Cu186 1.951       .   S
O182       C189 1.251       .   A
O183      Cu186 1.951       .   S
O183       C188 1.250       .   A
O184      Cu186 1.951       .   S
O184       C187 1.250       .   A
Cu185     Cu186 2.630       .   S
C187       C483 1.544   1_554   S
C188       C663 1.694   1_455   S
C189       C613 1.586   1_554   S
C190       C403 1.602       .   S
O191      Cu199 1.951       .   S
O191       C201 1.250       .   A
O192      Cu199 1.951       .   S
O192       C202 1.250       .   A
O193      Cu199 1.951       .   S
O193       C203 1.250       .   A
O194      Cu199 1.951       .   S
O194       C204 1.250       .   A
O195      Cu200 1.951       .   S
O195       C204 1.250       .   A
O196      Cu200 1.951       .   S
O196       C203 1.251       .   A
O197      Cu200 1.951       .   S
O197       C202 1.250       .   A
O198      Cu200 1.951       .   S
O198       C201 1.250       .   A
Cu199     Cu200 2.630       .   S
C201       C313 1.476       .   S
C202       C633 1.696   1_544   S
C203       C713 1.458       .   S
C204       C503 1.595   1_554   S
O205      Cu213 1.951       .   S
O205       C215 1.250       .   A
O206      Cu213 1.951       .   S
O206       C216 1.250       .   A
O207      Cu213 1.951       .   S
O207       C217 1.250       .   A
O208      Cu213 1.951       .   S
O208       C218 1.250       .   A
O209      Cu214 1.951       .   S
O209       C218 1.250       .   A
O210      Cu214 1.951       .   S
O210       C217 1.251       .   A
O211      Cu214 1.951       .   S
O211       C216 1.250       .   A
O212      Cu214 1.951       .   S
O212       C215 1.250       .   A
Cu213     Cu214 2.630       .   S
C215       C730 1.649   1_655   S
C216       C523 1.563   1_554   S
C217       C363 1.628       .   S
C218       C543 1.565   1_554   S
O219      Cu227 1.951       .   S
O219       C229 1.250       .   A
O220      Cu227 1.951       .   S
O220       C230 1.250       .   A
O221      Cu227 1.951       .   S
O221       C231 1.250       .   A
O222      Cu227 1.951       .   S
O222       C232 1.250       .   A
O223      Cu228 1.951       .   S
O223       C232 1.250       .   A
O224      Cu228 1.951       .   S
O224       C231 1.251       .   A
O225      Cu228 1.951       .   S
O225       C230 1.250       .   A
O226      Cu228 1.951       .   S
O226       C229 1.250       .   A
Cu227     Cu228 2.630       .   S
C229       C383 1.502       .   S
C230       C590 1.689   1_564   S
C231       C750 1.473       .   S
C232       C433 1.608   1_554   S
O233      Cu241 1.951       .   S
O233       C243 1.250       .   A
O234      Cu241 1.951       .   S
O234       C244 1.250       .   A
O235      Cu241 1.951       .   S
O235       C245 1.250       .   A
O236      Cu241 1.951       .   S
O236       C246 1.250       .   A
O237      Cu242 1.951       .   S
O237       C246 1.250       .   A
O238      Cu242 1.951       .   S
O238       C245 1.251       .   A
O239      Cu242 1.951       .   S
O239       C244 1.250       .   A
O240      Cu242 1.951       .   S
O240       C243 1.250       .   A
Cu241     Cu242 2.630       .   S
C243       C390 1.468       .   S
C244       C553 1.648   1_455   S
C245       C743 1.536       .   S
C246       C473 1.570       .   S
O247      Cu255 1.951       .   S
O247       C257 1.250       .   A
O248      Cu255 1.951       .   S
O248       C258 1.250       .   A
O249      Cu255 1.951       .   S
O249       C259 1.250       .   A
O250      Cu255 1.951       .   S
O250       C260 1.250       .   A
O251      Cu256 1.951       .   S
O251       C260 1.250       .   A
O252      Cu256 1.951       .   S
O252       C259 1.251       .   A
O253      Cu256 1.951       .   S
O253       C258 1.250       .   A
O254      Cu256 1.951       .   S
O254       C257 1.250       .   A
Cu255     Cu256 2.630       .   S
C257       C763 1.635   1_545   S
C258       C493 1.551       .   S
C259       C300 1.635       .   S
C260       C603 1.682       .   S
O261      Cu269 1.951       .   S
O261       C271 1.250       .   A
O262      Cu269 1.951       .   S
O262       C272 1.250       .   A
O263      Cu269 1.951       .   S
O263       C273 1.250       .   A
O264      Cu269 1.951       .   S
O264       C274 1.250       .   A
O265      Cu270 1.951       .   S
O265       C274 1.250       .   A
O266      Cu270 1.951       .   S
O266       C273 1.251       .   A
O267      Cu270 1.951       .   S
O267       C272 1.250       .   A
O268      Cu270 1.951       .   S
O268       C271 1.250       .   A
Cu269     Cu270 2.630       .   S
C271       C673 1.480       .   S
C272       C513 1.621       .   S
C273       C350 1.453       .   S
C274       C620 1.639   1_655   S
O275      Cu283 1.951       .   S
O275       C285 1.250       .   A
O276      Cu283 1.951       .   S
O276       C286 1.250       .   A
O277      Cu283 1.951       .   S
O277       C287 1.250       .   A
O278      Cu283 1.951       .   S
O278       C288 1.250       .   A
O279      Cu284 1.951       .   S
O279       C288 1.250       .   A
O280      Cu284 1.951       .   S
O280       C287 1.251       .   A
O281      Cu284 1.951       .   S
O281       C286 1.250       .   A
O282      Cu284 1.951       .   S
O282       C285 1.250       .   A
Cu283     Cu284 2.630       .   S
C285       C423 1.568       .   S
C286       C720 1.630   1_565   S
C287       C373 1.642       .   S
C288       C643 1.657       .   S
C759       C760 1.540       .   A
C759       C764 1.540       .   A
C759       H765 1.140       .   S
C760       C761 1.540       .   A
C761       C762 1.540       .   A
C761       H766 1.140       .   S
C762       C763 1.540       .   A
C762       H767 1.140       .   S
C763       C764 1.540       .   A
C764       H768 1.140       .   S
C749       C750 1.540       .   A
C749       C754 1.540       .   A
C749       H755 1.140       .   S
C750       C751 1.540       .   A
C751       C752 1.540       .   A
C751       H756 1.140       .   S
C752       C753 1.540       .   A
C752       H757 1.140       .   S
C753       C754 1.540       .   A
C754       H758 1.140       .   S
C739       C740 1.540       .   A
C739       C744 1.540       .   A
C739       H745 1.140       .   S
C740       C741 1.540       .   A
C741       C742 1.540       .   A
C741       H746 1.140       .   S
C742       C743 1.540       .   A
C742       H747 1.140       .   S
C743       C744 1.540       .   A
C744       H748 1.140       .   S
C729       C730 1.540       .   A
C729       C734 1.540       .   A
C729       H735 1.140       .   S
C730       C731 1.540       .   A
C731       C732 1.540       .   A
C731       H736 1.140       .   S
C732       C733 1.540       .   A
C732       H737 1.140       .   S
C733       C734 1.540       .   A
C734       H738 1.140       .   S
C719       C720 1.540       .   A
C719       C724 1.540       .   A
C719       H725 1.140       .   S
C720       C721 1.540       .   A
C721       C722 1.540       .   A
C721       H726 1.140       .   S
C722       C723 1.540       .   A
C722       H727 1.140       .   S
C723       C724 1.540       .   A
C724       H728 1.140       .   S
C709       C710 1.540       .   A
C709       C714 1.540       .   A
C709       H715 1.140       .   S
C710       C711 1.540       .   A
C711       C712 1.540       .   A
C711       H716 1.140       .   S
C712       C713 1.540       .   A
C712       H717 1.140       .   S
C713       C714 1.540       .   A
C714       H718 1.140       .   S
C699       C700 1.540       .   A
C699       C704 1.540       .   A
C699       H705 1.140       .   S
C700       C701 1.540       .   A
C701       C702 1.540       .   A
C701       H706 1.140       .   S
C702       C703 1.540       .   A
C702       H707 1.140       .   S
C703       C704 1.540       .   A
C704       H708 1.140       .   S
C689       C690 1.540       .   A
C689       C694 1.540       .   A
C689       H695 1.140       .   S
C690       C691 1.540       .   A
C691       C692 1.540       .   A
C691       H696 1.140       .   S
C692       C693 1.540       .   A
C692       H697 1.140       .   S
C693       C694 1.540       .   A
C694       H698 1.140       .   S
C679       C680 1.540       .   A
C679       C684 1.540       .   A
C679       H685 1.140       .   S
C680       C681 1.540       .   A
C681       C682 1.540       .   A
C681       H686 1.140       .   S
C682       C683 1.540       .   A
C682       H687 1.140       .   S
C683       C684 1.540       .   A
C684       H688 1.140       .   S
C669       C670 1.540       .   A
C669       C674 1.540       .   A
C669       H675 1.140       .   S
C670       C671 1.540       .   A
C671       C672 1.540       .   A
C671       H676 1.140       .   S
C672       C673 1.540       .   A
C672       H677 1.140       .   S
C673       C674 1.540       .   A
C674       H678 1.140       .   S
C659       C660 1.540       .   A
C659       C664 1.540       .   A
C659       H665 1.140       .   S
C660       C661 1.540       .   A
C661       C662 1.540       .   A
C661       H666 1.140       .   S
C662       C663 1.540       .   A
C662       H667 1.140       .   S
C663       C664 1.540       .   A
C664       H668 1.140       .   S
C649       C650 1.540       .   A
C649       C654 1.540       .   A
C649       H655 1.140       .   S
C650       C651 1.540       .   A
C651       C652 1.540       .   A
C651       H656 1.140       .   S
C652       C653 1.540       .   A
C652       H657 1.140       .   S
C653       C654 1.540       .   A
C654       H658 1.140       .   S
C639       C640 1.540       .   A
C639       C644 1.540       .   A
C639       H645 1.140       .   S
C640       C641 1.540       .   A
C641       C642 1.540       .   A
C641       H646 1.140       .   S
C642       C643 1.540       .   A
C642       H647 1.140       .   S
C643       C644 1.540       .   A
C644       H648 1.140       .   S
C629       C630 1.540       .   A
C629       C634 1.540       .   A
C629       H635 1.140       .   S
C630       C631 1.540       .   A
C631       C632 1.540       .   A
C631       H636 1.140       .   S
C632       C633 1.540       .   A
C632       H637 1.140       .   S
C633       C634 1.540       .   A
C634       H638 1.140       .   S
C619       C620 1.540       .   A
C619       C624 1.540       .   A
C619       H625 1.140       .   S
C620       C621 1.540       .   A
C621       C622 1.540       .   A
C621       H626 1.140       .   S
C622       C623 1.540       .   A
C622       H627 1.140       .   S
C623       C624 1.540       .   A
C624       H628 1.140       .   S
C609       C610 1.540       .   A
C609       C614 1.540       .   A
C609       H615 1.140       .   S
C610       C611 1.540       .   A
C611       C612 1.540       .   A
C611       H616 1.140       .   S
C612       C613 1.540       .   A
C612       H617 1.140       .   S
C613       C614 1.540       .   A
C614       H618 1.140       .   S
C599       C600 1.540       .   A
C599       C604 1.540       .   A
C599       H605 1.140       .   S
C600       C601 1.540       .   A
C601       C602 1.540       .   A
C601       H606 1.140       .   S
C602       C603 1.540       .   A
C602       H607 1.140       .   S
C603       C604 1.540       .   A
C604       H608 1.140       .   S
C589       C590 1.540       .   A
C589       C594 1.540       .   A
C589       H595 1.140       .   S
C590       C591 1.540       .   A
C591       C592 1.540       .   A
C591       H596 1.140       .   S
C592       C593 1.540       .   A
C592       H597 1.140       .   S
C593       C594 1.540       .   A
C594       H598 1.140       .   S
C579       C580 1.540       .   A
C579       C584 1.540       .   A
C579       H585 1.140       .   S
C580       C581 1.540       .   A
C581       C582 1.540       .   A
C581       H586 1.140       .   S
C582       C583 1.540       .   A
C582       H587 1.140       .   S
C583       C584 1.540       .   A
C584       H588 1.140       .   S
C569       C570 1.540       .   A
C569       C574 1.540       .   A
C569       H575 1.140       .   S
C570       C571 1.540       .   A
C571       C572 1.540       .   A
C571       H576 1.140       .   S
C572       C573 1.540       .   A
C572       H577 1.140       .   S
C573       C574 1.540       .   A
C574       H578 1.140       .   S
C559       C560 1.540       .   A
C559       C564 1.540       .   A
C559       H565 1.140       .   S
C560       C561 1.540       .   A
C561       C562 1.540       .   A
C561       H566 1.140       .   S
C562       C563 1.540       .   A
C562       H567 1.140       .   S
C563       C564 1.540       .   A
C564       H568 1.140       .   S
C549       C550 1.540       .   A
C549       C554 1.540       .   A
C549       H555 1.140       .   S
C550       C551 1.540       .   A
C551       C552 1.540       .   A
C551       H556 1.140       .   S
C552       C553 1.540       .   A
C552       H557 1.140       .   S
C553       C554 1.540       .   A
C554       H558 1.140       .   S
C539       C540 1.540       .   A
C539       C544 1.540       .   A
C539       H545 1.140       .   S
C540       C541 1.540       .   A
C541       C542 1.540       .   A
C541       H546 1.140       .   S
C542       C543 1.540       .   A
C542       H547 1.140       .   S
C543       C544 1.540       .   A
C544       H548 1.140       .   S
C529       C530 1.540       .   A
C529       C534 1.540       .   A
C529       H535 1.140       .   S
C530       C531 1.540       .   A
C531       C532 1.540       .   A
C531       H536 1.140       .   S
C532       C533 1.540       .   A
C532       H537 1.140       .   S
C533       C534 1.540       .   A
C534       H538 1.140       .   S
C519       C520 1.540       .   A
C519       C524 1.540       .   A
C519       H525 1.140       .   S
C520       C521 1.540       .   A
C521       C522 1.540       .   A
C521       H526 1.140       .   S
C522       C523 1.540       .   A
C522       H527 1.140       .   S
C523       C524 1.540       .   A
C524       H528 1.140       .   S
C509       C510 1.540       .   A
C509       C514 1.540       .   A
C509       H515 1.140       .   S
C510       C511 1.540       .   A
C511       C512 1.540       .   A
C511       H516 1.140       .   S
C512       C513 1.540       .   A
C512       H517 1.140       .   S
C513       C514 1.540       .   A
C514       H518 1.140       .   S
C499       C500 1.540       .   A
C499       C504 1.540       .   A
C499       H505 1.140       .   S
C500       C501 1.540       .   A
C501       C502 1.540       .   A
C501       H506 1.140       .   S
C502       C503 1.540       .   A
C502       H507 1.140       .   S
C503       C504 1.540       .   A
C504       H508 1.140       .   S
C489       C490 1.540       .   A
C489       C494 1.540       .   A
C489       H495 1.140       .   S
C490       C491 1.540       .   A
C491       C492 1.540       .   A
C491       H496 1.140       .   S
C492       C493 1.540       .   A
C492       H497 1.140       .   S
C493       C494 1.540       .   A
C494       H498 1.140       .   S
C479       C480 1.540       .   A
C479       C484 1.540       .   A
C479       H485 1.140       .   S
C480       C481 1.540       .   A
C481       C482 1.540       .   A
C481       H486 1.140       .   S
C482       C483 1.540       .   A
C482       H487 1.140       .   S
C483       C484 1.540       .   A
C484       H488 1.140       .   S
C469       C470 1.540       .   A
C469       C474 1.540       .   A
C469       H475 1.140       .   S
C470       C471 1.540       .   A
C471       C472 1.540       .   A
C471       H476 1.140       .   S
C472       C473 1.540       .   A
C472       H477 1.140       .   S
C473       C474 1.540       .   A
C474       H478 1.140       .   S
C459       C460 1.540       .   A
C459       C464 1.540       .   A
C459       H465 1.140       .   S
C460       C461 1.540       .   A
C461       C462 1.540       .   A
C461       H466 1.140       .   S
C462       C463 1.540       .   A
C462       H467 1.140       .   S
C463       C464 1.540       .   A
C464       H468 1.140       .   S
C449       C450 1.540       .   A
C449       C454 1.540       .   A
C449       H455 1.140       .   S
C450       C451 1.540       .   A
C451       C452 1.540       .   A
C451       H456 1.140       .   S
C452       C453 1.540       .   A
C452       H457 1.140       .   S
C453       C454 1.540       .   A
C454       H458 1.140       .   S
C439       C440 1.540       .   A
C439       C444 1.540       .   A
C439       H445 1.140       .   S
C440       C441 1.540       .   A
C441       C442 1.540       .   A
C441       H446 1.140       .   S
C442       C443 1.540       .   A
C442       H447 1.140       .   S
C443       C444 1.540       .   A
C444       H448 1.140       .   S
C429       C430 1.540       .   A
C429       C434 1.540       .   A
C429       H435 1.140       .   S
C430       C431 1.540       .   A
C431       C432 1.540       .   A
C431       H436 1.140       .   S
C432       C433 1.540       .   A
C432       H437 1.140       .   S
C433       C434 1.540       .   A
C434       H438 1.140       .   S
C419       C420 1.540       .   A
C419       C424 1.540       .   A
C419       H425 1.140       .   S
C420       C421 1.540       .   A
C421       C422 1.540       .   A
C421       H426 1.140       .   S
C422       C423 1.540       .   A
C422       H427 1.140       .   S
C423       C424 1.540       .   A
C424       H428 1.140       .   S
C409       C410 1.540       .   A
C409       C414 1.540       .   A
C409       H415 1.140       .   S
C410       C411 1.540       .   A
C411       C412 1.540       .   A
C411       H416 1.140       .   S
C412       C413 1.540       .   A
C412       H417 1.140       .   S
C413       C414 1.540       .   A
C414       H418 1.140       .   S
C399       C400 1.540       .   A
C399       C404 1.540       .   A
C399       H405 1.140       .   S
C400       C401 1.540       .   A
C401       C402 1.540       .   A
C401       H406 1.140       .   S
C402       C403 1.540       .   A
C402       H407 1.140       .   S
C403       C404 1.540       .   A
C404       H408 1.140       .   S
C389       C390 1.540       .   A
C389       C394 1.540       .   A
C389       H395 1.140       .   S
C390       C391 1.540       .   A
C391       C392 1.540       .   A
C391       H396 1.140       .   S
C392       C393 1.540       .   A
C392       H397 1.140       .   S
C393       C394 1.540       .   A
C394       H398 1.140       .   S
C379       C380 1.540       .   A
C379       C384 1.540       .   A
C379       H385 1.140       .   S
C380       C381 1.540       .   A
C381       C382 1.540       .   A
C381       H386 1.140       .   S
C382       C383 1.540       .   A
C382       H387 1.140       .   S
C383       C384 1.540       .   A
C384       H388 1.140       .   S
C369       C370 1.540       .   A
C369       C374 1.540       .   A
C369       H375 1.140       .   S
C370       C371 1.540       .   A
C371       C372 1.540       .   A
C371       H376 1.140       .   S
C372       C373 1.540       .   A
C372       H377 1.140       .   S
C373       C374 1.540       .   A
C374       H378 1.140       .   S
C359       C360 1.540       .   A
C359       C364 1.540       .   A
C359       H365 1.140       .   S
C360       C361 1.540       .   A
C361       C362 1.540       .   A
C361       H366 1.140       .   S
C362       C363 1.540       .   A
C362       H367 1.140       .   S
C363       C364 1.540       .   A
C364       H368 1.140       .   S
C349       C350 1.540       .   A
C349       C354 1.540       .   A
C349       H355 1.140       .   S
C350       C351 1.540       .   A
C351       C352 1.540       .   A
C351       H356 1.140       .   S
C352       C353 1.540       .   A
C352       H357 1.140       .   S
C353       C354 1.540       .   A
C354       H358 1.140       .   S
C339       C340 1.540       .   A
C339       C344 1.540       .   A
C339       H345 1.140       .   S
C340       C341 1.540       .   A
C341       C342 1.540       .   A
C341       H346 1.140       .   S
C342       C343 1.540       .   A
C342       H347 1.140       .   S
C343       C344 1.540       .   A
C344       H348 1.140       .   S
C329       C330 1.540       .   A
C329       C334 1.540       .   A
C329       H335 1.140       .   S
C330       C331 1.540       .   A
C331       C332 1.540       .   A
C331       H336 1.140       .   S
C332       C333 1.540       .   A
C332       H337 1.140       .   S
C333       C334 1.540       .   A
C334       H338 1.140       .   S
C319       C320 1.540       .   A
C319       C324 1.540       .   A
C319       H325 1.140       .   S
C320       C321 1.540       .   A
C321       C322 1.540       .   A
C321       H326 1.140       .   S
C322       C323 1.540       .   A
C322       H327 1.140       .   S
C323       C324 1.540       .   A
C324       H328 1.140       .   S
C309       C310 1.540       .   A
C309       C314 1.540       .   A
C309       H315 1.140       .   S
C310       C311 1.540       .   A
C311       C312 1.540       .   A
C311       H316 1.140       .   S
C312       C313 1.540       .   A
C312       H317 1.140       .   S
C313       C314 1.540       .   A
C314       H318 1.140       .   S
C299       C300 1.540       .   A
C299       C304 1.540       .   A
C299       H305 1.140       .   S
C300       C301 1.540       .   A
C301       C302 1.540       .   A
C301       H306 1.140       .   S
C302       C303 1.540       .   A
C302       H307 1.140       .   S
C303       C304 1.540       .   A
C304       H308 1.140       .   S
C289       C290 1.540       .   A
C289       C294 1.540       .   A
C289       H295 1.140       .   S
C290       C291 1.540       .   A
C291       C292 1.540       .   A
C291       H296 1.140       .   S
C292       C293 1.540       .   A
C292       H297 1.140       .   S
C293       C294 1.540       .   A
C294       H298 1.140       .   S
