data_fjh_v1-3c_triazine_Ch_v2-4c_B_Ch_v3-4c_Cu_1_Ch_2-1B_4H_Ch
_audit_creation_date              2024-08-05
_audit_creation_method            'tobacco_3.0'
_symmetry_space_group_name_H-M    'P1'
_symmetry_Int_Tables_number       1
_symmetry_cell_setting            triclinic
loop_
_symmetry_equiv_pos_as_xyz
  x,y,z
_cell_length_a                    38.27713519170621
_cell_length_b                    38.25950388356238
_cell_length_c                    29.20754471624342
_cell_angle_alpha                 89.99997212807237
_cell_angle_beta                  90.00070097380103
_cell_angle_gamma                 93.71384364759491
loop_
_atom_site_label
_atom_site_type_symbol
_atom_site_fract_x
_atom_site_fract_y
_atom_site_fract_z
_atom_site_charge
C1         C    0.5206079242    0.2319103511    0.2125003081          0.1812
N2         N    0.5181430465    0.2719183944    0.2115483208          0.1812
C3         C    0.4975351223    0.2900080432    0.2490480127          0.1812
N4         N    0.4793920758    0.2680896489    0.2874996919          0.1812
C5         C    0.4818569535    0.2280816056    0.2884516792          0.1812
N6         N    0.5024648777    0.2099919568    0.2509519873          0.1812
C7         C    0.4826393378    0.4510468187    0.2588789770         -0.7929
C8         C    0.5115296526    0.4809918167    0.2591300355         -0.7933
C9         C    0.5016239643    0.5193675370    0.2590934566         -0.9985
C10        C    0.4628279611    0.5277982592    0.2588058191         -0.7929
C11        C    0.4339376463    0.4978532612    0.2585547607         -0.7933
C12        C    0.4438433346    0.4594775409    0.2585913396         -0.9985
H13        H    0.4224521859    0.4373089350    0.2584054529         -0.7729
H14        H    0.5230151130    0.5415361429    0.2592793433         -0.7729
C15        C    0.7318883394    0.4522078814    0.2990752206          0.1812
N16        N    0.6917388692    0.4531243128    0.3003575961          0.1812
C17        C    0.6726753503    0.4731997441    0.2632192756          0.1812
N18        N    0.6937613016    0.4923587438    0.2247985795          0.1812
C19        C    0.7339107718    0.4914423123    0.2235162040          0.1812
N20        N    0.7529742907    0.4713668811    0.2606545245          0.1812
C21        C    0.4235643130    0.7461098054    0.2127004094          0.1812
N22        N    0.4260246200    0.7061018913    0.2116988346          0.1812
C23        C    0.4467617884    0.6880009435    0.2490596035          0.1812
N24        N    0.4650386498    0.7099079098    0.2874219472          0.1812
C25        C    0.4625783428    0.7499158239    0.2884235221          0.1812
N26        N    0.4418411744    0.7680167718    0.2510627531          0.1812
C27        C    0.2134947044    0.5294272300    0.2956849000          0.1812
N28        N    0.2536453064    0.5285387479    0.2970368199          0.1812
C29        C    0.2727926892    0.5087891792    0.2596605614          0.1812
N30        N    0.2517894700    0.4899280926    0.2209323830          0.1812
C31        C    0.2116388680    0.4908165747    0.2195804632          0.1812
N32        N    0.1924914852    0.5105661434    0.2569567217          0.1812
C33        C    0.3978844890    0.7420359706    0.7711169450          0.1812
N34        N    0.4163819495    0.7638250880    0.7328139484          0.1812
C35        C    0.4372972216    0.7456046831    0.6957421651          0.1812
N36        N    0.4397150333    0.7055951607    0.6969733785          0.1812
C37        C    0.4212175728    0.6838060433    0.7352763751          0.1812
N38        N    0.4003023007    0.7020264482    0.7723481584          0.1812
C39        C    0.4615005758    0.5269614796    0.7602464139         -0.7929
C40        C    0.4327089886    0.4969216889    0.7600557587         -0.7933
C41        C    0.4427503827    0.4585901597    0.7603864839         -0.9985
C42        C    0.4815833639    0.4502984214    0.7609078643         -0.7929
C43        C    0.5103749511    0.4803382122    0.7610985194         -0.7933
C44        C    0.5003335571    0.5186697413    0.7607677942         -0.9985
H45        H    0.5216516173    0.5409085351    0.7609089791         -0.7729
H46        H    0.4214323224    0.4363513660    0.7602452990         -0.7729
C47        C    0.2159215329    0.5482359766    0.7349022946          0.1812
N48        N    0.2560977761    0.5475181154    0.7343754938          0.1812
C49        C    0.2748763343    0.5277503642    0.7720765190          0.1812
N50        N    0.2534786494    0.5087004742    0.8103043450          0.1812
C51        C    0.2133024062    0.5094183354    0.8108311458          0.1812
N52        N    0.1945238480    0.5291860866    0.7731301205          0.1812
C53        C    0.5429374844    0.2354723459    0.7751601634          0.1812
N54        N    0.5403156869    0.2754569149    0.7763326246          0.1812
C55        C    0.5195265790    0.2935658763    0.7390314353          0.1812
N56        N    0.5013592687    0.2716902689    0.7005577849          0.1812
C57        C    0.5039810661    0.2317056999    0.6993853237          0.1812
N58        N    0.5247701740    0.2135967385    0.7366865129          0.1812
C59        C    0.7269879777    0.4268796234    0.7413954121          0.1812
N60        N    0.6868005811    0.4274709492    0.7410047235          0.1812
C61        C    0.6680606780    0.4475247619    0.7784646004          0.1812
N62        N    0.6895081715    0.4669872487    0.8163151658          0.1812
C63        C    0.7296955681    0.4663959229    0.8167058543          0.1812
N64        N    0.7484354712    0.4463421102    0.7792459775          0.1812
C65        C    0.9098713546    0.7270763160    0.7590590278          0.1812
N66        N    0.9090977235    0.7672563629    0.7577688710          0.1812
C67        C    0.9280946522    0.7882660990    0.7191480681          0.1812
N68        N    0.9478652119    0.7690957881    0.6818174220          0.1812
C69        C    0.9486388429    0.7289157412    0.6831075789          0.1812
N70        N    0.9296419143    0.7079060051    0.7217283818          0.1812
C71        C    0.9319777292    0.9773004537    0.7332639677         -0.7929
C72        C    0.9599266486    0.9501041543    0.7330876762         -0.7933
C73        C    0.9990658410    0.9623008630    0.7330977448         -0.9985
C74        C    0.0102561140    0.0016938712    0.7332841049         -0.7929
C75        C    0.9823071946    0.0288901706    0.7334603964         -0.7933
C76        C    0.9431680022    0.0166934619    0.7334503278         -0.9985
H77        H    0.9224773511    0.0368305212    0.7335808551         -0.7729
H78        H    0.0197564921    0.9421638037    0.7329672175         -0.7729
C79        C    0.2363791702    0.0561061273    0.7503404001          0.1812
N80        N    0.1963416423    0.0574255127    0.7468826309          0.1812
C81        C    0.1725359028    0.0387456550    0.7830331611          0.1812
N82        N    0.1887676912    0.0187464120    0.8226414606          0.1812
C83        C    0.2288052191    0.0174270266    0.8260992298          0.1812
N84        N    0.2526109585    0.0361068843    0.7899486996          0.1812
C85        C    0.0316390727    0.2516739084    0.7611743408          0.1812
N86        N    0.0325417786    0.2115000917    0.7601745375          0.1812
C87        C    0.0135004790    0.1902609441    0.7217914640          0.1812
N88        N    0.9935564733    0.2091956133    0.6844081938          0.1812
C89        C    0.9926537674    0.2493694300    0.6854079971          0.1812
N90        N    0.0116950671    0.2706085775    0.7237910705          0.1812
C91        C    0.7078333133    0.9223064619    0.7504757283          0.1812
N92        N    0.7478979978    0.9212498477    0.7470675110          0.1812
C93        C    0.7715664859    0.9400919086    0.7832330392          0.1812
N94        N    0.7551702896    0.9599905837    0.8228067846          0.1812
C95        C    0.7151056051    0.9610471979    0.8262150019          0.1812
N96        N    0.6914371170    0.9422051370    0.7900494737          0.1812
C97        C    0.9549963876    0.2464732147    0.1928304528          0.1812
N98        N    0.9561140789    0.2063267668    0.1942836823          0.1812
C99        C    0.9372895030    0.1852584376    0.2329873210          0.1812
N100       N    0.9173472358    0.2043365563    0.2702377302          0.1812
C101       C    0.9162295445    0.2444830042    0.2687845007          0.1812
N102       N    0.9350541204    0.2655513334    0.2300808620          0.1812
C103       C    0.9333245978    0.9984132074    0.2802181218         -0.7929
C104       C    0.9621207370    0.0284477361    0.2805722411         -0.7933
C105       C    0.0009565315    0.0201522956    0.2805453305         -0.9985
C106       C    0.0109961869    0.9818223263    0.2801643007         -0.7929
C107       C    0.9822000476    0.9517877976    0.2798101814         -0.7933
C108       C    0.9433642531    0.9600832381    0.2798370920         -0.9985
H109       H    0.9220462971    0.9378450257    0.2795748995         -0.7729
H110       H    0.0222744875    0.0423905080    0.2808075230         -0.7729
C111       C    0.7105395111    0.9965476880    0.3200260286          0.1812
N112       N    0.7506149981    0.9954850197    0.3231976313          0.1812
C113       C    0.7741556107    0.0142171081    0.2868075351          0.1812
N114       N    0.7576207364    0.0340118647    0.2472458362          0.1812
C115       C    0.7175452494    0.0350745329    0.2440742335          0.1812
N116       N    0.6940046368    0.0163424446    0.2804643297          0.1812
C117       C    0.9907102207    0.7327137970    0.1878406737          0.1812
N118       N    0.9899016116    0.7728817024    0.1895532128          0.1812
C119       C    0.0087683535    0.7936577382    0.2284793586          0.1812
N120       N    0.0284437044    0.7742658687    0.2656929651          0.1812
C121       C    0.0292523135    0.7340979634    0.2639804260          0.1812
N122       N    0.0103855717    0.7133219275    0.2250542802          0.1812
C123       C    0.2341403192    0.9815455812    0.3202092380          0.1812
N124       N    0.1941031404    0.9829473312    0.3235073682          0.1812
C125       C    0.1703555885    0.9644880295    0.2871162233          0.1812
N126       N    0.1866452154    0.9446269777    0.2474269483          0.1812
C127       C    0.2266823941    0.9432252277    0.2441288181          0.1812
N128       N    0.2504299460    0.9616845295    0.2805199630          0.1812
O129       O    0.1455550743    0.3838447601    0.9619260464         -1.5452
O130       O    0.0893416822    0.3267319598    0.0476056365         -1.5551
O131       O    0.0964376006    0.3286603538    0.9541434639         -1.4412
O132       O    0.1384586420    0.3819162204    0.0553950319         -1.5254
O133       O    0.0963635678    0.4191996928    0.0510064942         -1.5209
O134       O    0.0543461742    0.3659477867    0.9497555023         -1.4334
O135       O    0.0472466080    0.3640154322    0.0432170988         -1.5585
O136       O    0.1034600001    0.4211282324    0.9575375087         -1.5463
Cu137     Cu    0.1212880892    0.3518842318    0.0051682116          1.0456
Cu138     Cu    0.0715135930    0.3959759605    0.9999749336          1.0433
C139       C    0.1327952163    0.4109077667    0.9470978959          0.1167
C140       C    0.0600064660    0.3369524256    0.0580452493          0.1081
C141       C    0.0692004587    0.3394532490    0.9370200492          0.0296
C142       C    0.1236012236    0.4084069433    0.0681230959          0.0923
O143       O    0.5831429067    0.1344909413    0.0514855713         -1.5452
O144       O    0.6285154193    0.0742139865    0.9662044266         -1.5551
O145       O    0.6267629918    0.0806779567    0.0597219132         -1.4412
O146       O    0.5848954581    0.1280264947    0.9579612685         -1.5254
O147       O    0.6311326471    0.1662785626    0.9551895765         -1.5209
O148       O    0.6729969266    0.1189338836    0.0569496236         -1.4334
O149       O    0.6747526082    0.1124660545    0.9634327346         -1.5585
O150       O    0.6293800957    0.1727430092    0.0487138793         -1.5463
Cu151     Cu    0.6016111634    0.1008598853    0.0090960555          1.0456
Cu152     Cu    0.6562843515    0.1460971104    0.0058222504          1.0433
C153       C    0.5995723306    0.1625048401    0.0626747662          0.1167
C154       C    0.6583231844    0.0844521556    0.9522435397          0.1081
C155       C    0.6560489397    0.0928260413    0.0733405230          0.0296
C156       C    0.6018465752    0.1541309544    0.9415777829          0.0923
O157       O    0.8545791927    0.6557368239    0.0465507915         -1.5452
O158       O    0.7977142435    0.5978593979    0.9623972028         -1.5551
O159       O    0.8055913189    0.6005716286    0.0557278014         -1.4412
O160       O    0.8467015377    0.6530243981    0.9532133905         -1.5254
O161       O    0.8888031412    0.6157526760    0.9487567311         -1.5209
O162       O    0.8476964234    0.5633039874    0.0512704786         -1.4334
O163       O    0.8398158470    0.5605876758    0.9579405433         -1.5585
O164       O    0.8966807962    0.6184651018    0.0420941321         -1.5463
Cu165     Cu    0.8223029668    0.6301975712    0.0048788510          1.0456
Cu166     Cu    0.8720920729    0.5861269285    0.9996124838          1.0433
C167       C    0.8840148588    0.6456339976    0.0567312304          0.1167
C168       C    0.8103801809    0.5706905021    0.9477601044          0.1081
C169       C    0.8205834061    0.5742083588    0.0686150481          0.0296
C170       C    0.8738116337    0.6421161409    0.9358762867          0.0923
O171       O    0.3602456292    0.8431675128    0.0496574521         -1.5452
O172       O    0.3147842749    0.9036268749    0.9646959868         -1.5551
O173       O    0.3169077814    0.8971878164    0.0582004954         -1.4412
O174       O    0.3581219718    0.8496070459    0.9561461282         -1.5254
O175       O    0.3117209987    0.8115445993    0.9537175248         -1.5209
O176       O    0.2705100422    0.8591214955    0.0557712716         -1.4334
O177       O    0.2683833019    0.8655644284    0.9622673833         -1.5585
O178       O    0.3138446562    0.8051050662    0.0472288487         -1.5463
Cu179     Cu    0.3417478983    0.8768724743    0.0073964771          1.0456
Cu180     Cu    0.2868810327    0.8318594668    0.0045283584          1.0433
C181       C    0.3437474146    0.8152215332    0.0609710619          0.1167
C182       C    0.2848815165    0.8935104079    0.9509537735          0.1081
C183       C    0.2876362588    0.8851687580    0.0720339159          0.0296
C184       C    0.3409926722    0.8235631832    0.9398909196          0.0923
O185       O    0.1107541630    0.5829754522    0.4599761293         -1.5452
O186       O    0.0514678759    0.6297847737    0.5450500003         -1.5551
O187       O    0.0586894384    0.6286057830    0.4516093958         -1.4412
O188       O    0.1035320687    0.5841545252    0.5534235442         -1.5254
O189       O    0.1432164386    0.6291465147    0.5573859342         -1.5209
O190       O    0.0983775374    0.6735943739    0.4555723908         -1.4334
O191       O    0.0911522457    0.6747767632    0.5490123902         -1.5585
O192       O    0.1504385328    0.6279674417    0.4639385193         -1.5463
Cu193     Cu    0.0774877727    0.6022757957    0.5021533441          1.0456
Cu194     Cu    0.1244186359    0.6554764197    0.5068351754          1.0433
C195       C    0.1393381762    0.5985704229    0.4494128606          0.1167
C196       C    0.0625682325    0.6591817925    0.5595756589          0.1081
C197       C    0.0719229505    0.6576499642    0.4385782105          0.0296
C198       C    0.1299834581    0.6001022512    0.5704103090          0.0923
O199       O    0.3248422683    0.1022940943    0.4643875512         -1.5452
O200       O    0.3835735583    0.1570144285    0.5498513263         -1.5551
O201       O    0.3813985149    0.1497642659    0.4564157506         -1.4412
O202       O    0.3270174678    0.1095447911    0.5578299370         -1.5254
O203       O    0.3628743633    0.0662083921    0.5623635537         -1.5209
O204       O    0.4172512306    0.1064244785    0.4609499427         -1.4334
O205       O    0.4194304539    0.1136780295    0.5543849431         -1.5585
O206       O    0.3606991639    0.0589576954    0.4689211679         -1.5463
Cu207     Cu    0.3509375961    0.1336106329    0.5067076026          1.0456
Cu208     Cu    0.3933351261    0.0823614910    0.5120648917          1.0433
C209       C    0.3341117750    0.0725572257    0.4540524157          0.1167
C210       C    0.4101609472    0.1434148982    0.5647200786          0.1081
C211       C    0.4073386243    0.1340236380    0.4437290926          0.0296
C212       C    0.3369340979    0.0819484859    0.5750434017          0.0923
O213       O    0.8434669255    0.3025722205    0.4553575564         -1.5452
O214       O    0.7981432216    0.3463373206    0.5573149386         -1.5551
O215       O    0.7914524739    0.3482480345    0.4638320898         -1.4412
O216       O    0.8501581555    0.3006613637    0.5488472198         -1.5254
O217       O    0.8899469583    0.3456065805    0.5457997953         -1.5209
O218       O    0.8312450024    0.3931898493    0.4607840546         -1.4334
O219       O    0.8379320244    0.3912825374    0.5542675141         -1.5585
O220       O    0.8832557283    0.3475174373    0.4523101319         -1.5463
Cu221     Cu    0.8171726163    0.3203546524    0.5066167477          1.0456
Cu222     Cu    0.8642263336    0.3735001055    0.5030083229          1.0433
C223       C    0.8700443300    0.3185926849    0.4387999697          0.1167
C224       C    0.8113546198    0.3752620730    0.5708251008          0.1081
C225       C    0.8026940096    0.3777311607    0.4497716988          0.0296
C226       C    0.8787049402    0.3161235973    0.5598533718          0.0923
O227       O    0.5271355849    0.8630431330    0.5542607273         -1.5452
O228       O    0.5862399240    0.9177175571    0.4691678177         -1.5551
O229       O    0.5296527508    0.8703350744    0.4608338649         -1.4412
O230       O    0.5837268792    0.9104290742    0.5625952859         -1.5254
O231       O    0.6195304558    0.8670364378    0.5582591348         -1.5209
O232       O    0.5654560866    0.8269419784    0.4565045293         -1.4334
O233       O    0.6220435006    0.8743249207    0.4648316667         -1.5585
O234       O    0.5629391615    0.8196504967    0.5499245762         -1.5463
Cu235     Cu    0.5534218377    0.8943414952    0.5121072082          1.0456
Cu236     Cu    0.5957572478    0.8430265585    0.5069851857          1.0433
C237       C    0.5363227540    0.8332844162    0.5646386553          0.1167
C238       C    0.6128563315    0.9040836375    0.4544537386          0.1081
C239       C    0.5395793100    0.8427276958    0.4436700558          0.0296
C240       C    0.6095997755    0.8946403579    0.5754223381          0.0923
C711       C    0.2543542442    0.0441257424    0.3617441195          0.1812
C712       C    0.2598809729    0.0049792625    0.3546711839          0.1812
C713       C    0.2896527759    0.9879049235    0.3800578912          0.1812
C714       C    0.3138978501    0.0099770645    0.4125175343          0.1812
C715       C    0.3083711213    0.0491235445    0.4195904699          0.1812
C716       C    0.2785993183    0.0661978834    0.3942037625          0.1812
H717       H    0.2323153770    0.0567651882    0.3429513621          0.1812
H718       H    0.2937445831    0.9589282978    0.3748233328          0.1812
H719       H    0.3359367172    0.9973376188    0.4313102917           0.194
H720       H    0.2745075112    0.0951745092    0.3994383210          0.1812
C701       C    0.2957402768    0.9050372832    0.1570553601          0.1812
C702       C    0.2727364679    0.8993602988    0.1141014381          0.1812
C703       C    0.2341555176    0.9085200085    0.1151274450          0.1812
C704       C    0.2185783761    0.9233567026    0.1591073738          0.1812
C705       C    0.2415821850    0.9290336869    0.2020612958          0.1812
C706       C    0.2801631353    0.9198739772    0.2010352890          0.1812
H707       H    0.3243002010    0.8982567188    0.1562958485          0.1812
H708       H    0.2171269590    0.9043182148    0.0833331370          0.1812
H709       H    0.1900184519    0.9301372669    0.1598668854          0.1812
H710       H    0.2971916939    0.9240757710    0.2328295969          0.1812
C691       C    0.0648373734    0.7338284513    0.3423480943          0.1812
C692       C    0.0399059346    0.7150111142    0.3075724312          0.1812
C693       C    0.0256561932    0.6770566267    0.3165036551          0.1812
C694       C    0.0363378906    0.6579194763    0.3602105421          0.1812
C695       C    0.0612693295    0.6767368134    0.3949862052          0.1812
C696       C    0.0755190709    0.7146913009    0.3860549813          0.1812
H697       H    0.0753858833    0.7619246303    0.3357366689          0.1812
H698       H    0.0072015798    0.6631268994    0.2907631156          0.1812
H699       H    0.0257893807    0.6298232972    0.3668219676          0.1812
H700       H    0.0939736843    0.7286210281    0.4117955209          0.1812
C681       C    0.9458705981    0.6525024088    0.1055884447          0.1812
C682       C    0.9116004346    0.6681480635    0.0906289502          0.1812
C683       C    0.9030923763    0.7048195520    0.1073264576          0.1812
C684       C    0.9288544815    0.7258453858    0.1389834594          0.1812
C685       C    0.9631246450    0.7101997312    0.1539429539          0.1812
C686       C    0.9716327033    0.6735282426    0.1372454466          0.1812
H687       H    0.9521687711    0.6253559822    0.0932279523          0.1812
H688       H    0.8777254539    0.7164015705    0.0962540213          0.1812
H689       H    0.9225563085    0.7529918124    0.1513439518          0.1812
H690       H    0.9969996257    0.6619462241    0.1483178828          0.1812
C671       C    0.6294582957    0.9657646291    0.4090251155          0.1812
C672       C    0.6379708400    0.9278562992    0.4198921501          0.1812
C673       C    0.6702104656    0.9124073328    0.3981069182          0.1812
C674       C    0.6939375470    0.9348666964    0.3654546517          0.1812
C675       C    0.6854250027    0.9727750264    0.3545876171          0.1812
C676       C    0.6531853770    0.9882239927    0.3763728490          0.1812
H677       H    0.6055925988    0.9772008770    0.4251518457          0.1812
H678       H    0.6765124410    0.8843472328    0.4061499691          0.1812
H679       H    0.7178032439    0.9234304486    0.3493279216          0.1812
H680       H    0.6468834017    0.0162840928    0.3683297981          0.1812
C661       C    0.7095010669    0.0881462392    0.1905251895          0.1812
C662       C    0.7025892910    0.0491197522    0.2025516400          0.1812
C663       C    0.6798853187    0.0249238002    0.1707338287          0.1812
C664       C    0.6640931222    0.0397543351    0.1268895669          0.1812
C665       C    0.6710048981    0.0787808220    0.1148631165          0.1812
C666       C    0.6937088705    0.1029767740    0.1466809278          0.1812
H667       H    0.7263079036    0.1060575283    0.2140786343          0.1812
H668       H    0.6747685282    0.9960357675    0.1796347576          0.1812
H669       H    0.6472862856    0.0218430459    0.1033361222          0.1812
H670       H    0.6988256609    0.1318648067    0.1377799988          0.1812
C651       C    0.0701583335    0.9650469259    0.2391289562          0.1812
C652       C    0.0509751692    0.9774736180    0.2819083508          0.1812
C653       C    0.0714927234    0.9855818701    0.3264196566          0.1812
C654       C    0.1111934419    0.9812634299    0.3281515678          0.1812
C655       C    0.1303766062    0.9688367377    0.2853721732          0.1812
C656       C    0.1098590520    0.9607284857    0.2408608674          0.1812
H657       H    0.0549700142    0.9590447133    0.2061790286          0.1812
H658       H    0.0572940628    0.9947803201    0.3580862211          0.1812
H659       H    0.1263817613    0.9872656425    0.3611014954          0.1812
H660       H    0.1240577127    0.9515300357    0.2091943029          0.1812
C641       C    0.0263251791    0.8980435790    0.2689770909          0.1812
C642       C    0.9890692630    0.9109033904    0.2665386360          0.1812
C643       C    0.9582282845    0.8855825793    0.2517063150          0.1812
C644       C    0.9646432220    0.8474019568    0.2393124490          0.1812
C645       C    0.0018991381    0.8345421454    0.2417509040          0.1812
C646       C    0.0327401166    0.8598629565    0.2565832249          0.1812
H647       H    0.0491555138    0.9167875561    0.2799568610          0.1812
H648       H    0.9306506118    0.8951005646    0.2499009099          0.1812
H649       H    0.9418128873    0.8286579797    0.2283326789          0.1812
H650       H    0.0603177893    0.8503449712    0.2583886300          0.1812
C631       C    0.8678666160    0.9706256293    0.2716983770          0.1812
C632       C    0.8935049224    0.0023669059    0.2818666107          0.1812
C633       C    0.8793784107    0.0380564344    0.2936810621          0.1812
C634       C    0.8396135925    0.0420046862    0.2953272799          0.1812
C635       C    0.8139752861    0.0102634095    0.2851590462          0.1812
C636       C    0.8281017978    0.9745738810    0.2733445948          0.1812
H637       H    0.8783239040    0.9442061082    0.2629526143          0.1812
H638       H    0.8983553469    0.0615523441    0.3012079264          0.1812
H639       H    0.8291563046    0.0684242073    0.3040730426          0.1812
H640       H    0.8091248616    0.9510779714    0.2658177305          0.1812
C621       C    0.9319652771    0.2744314676    0.3472582799          0.1812
C622       C    0.9049141892    0.2626398403    0.3104382088          0.1812
C623       C    0.8660858493    0.2697462172    0.3169721641          0.1812
C624       C    0.8543085974    0.2886442215    0.3603261905          0.1812
C625       C    0.8813596853    0.3004358488    0.3971462617          0.1812
C626       C    0.9201880252    0.2933294718    0.3906123064          0.1812
H627       H    0.9607083339    0.2691709028    0.3424214559          0.1812
H628       H    0.8460615013    0.2610183215    0.2897182850          0.1812
H629       H    0.8255655406    0.2939047862    0.3651630145          0.1812
H630       H    0.9402123732    0.3020573675    0.4178661854          0.1812
C611       C    0.0223056314    0.2669694624    0.1610982698          0.1812
C612       C    0.9824988302    0.2701699812    0.1575298190          0.1812
C613       C    0.9676946256    0.2949133390    0.1218694002          0.1812
C614       C    0.9926972222    0.3164561779    0.0897774323          0.1812
C615       C    0.0325040234    0.3132556591    0.0933458831          0.1812
C616       C    0.0473082280    0.2885123013    0.1290063019          0.1812
H617       H    0.0332645880    0.2486529507    0.1874962421          0.1812
H618       H    0.9382293044    0.2972831347    0.1192269171          0.1812
H619       H    0.9817382656    0.3347726895    0.0633794600          0.1812
H620       H    0.0767735492    0.2861425056    0.1316487850          0.1812
C601       C    0.9130283513    0.1171279783    0.2424694371          0.1812
C602       C    0.9436258193    0.1452442280    0.2451298148          0.1812
C603       C    0.9803025880    0.1349693366    0.2594401587          0.1812
C604       C    0.9863818887    0.0965781954    0.2710901250          0.1812
C605       C    0.9557844207    0.0684619458    0.2684297473          0.1812
C606       C    0.9191076520    0.0787368372    0.2541194034          0.1812
H607       H    0.8858780160    0.1247340668    0.2318760657          0.1812
H608       H    0.0029518858    0.1557805595    0.2614098137          0.1812
H609       H    0.0135322240    0.0889721070    0.2816834964          0.1812
H610       H    0.8964583542    0.0579256143    0.2521497485          0.1812
C591       C    0.6977801833    0.9012259883    0.6604693142          0.1812
C592       C    0.6823761642    0.9151368114    0.7051107708          0.1812
C593       C    0.6433125252    0.9223842330    0.7075904898          0.1812
C594       C    0.6196529055    0.9157208316    0.6654287522          0.1812
C595       C    0.6350569247    0.9018100085    0.6207872956          0.1812
C596       C    0.6741205636    0.8945625868    0.6183075766          0.1812
H597       H    0.7266974225    0.8958610139    0.6586336780          0.1812
H598       H    0.6319092887    0.9326812042    0.7406340159          0.1812
H599       H    0.5907356663    0.9210858060    0.6672643884          0.1812
H600       H    0.6855238001    0.8842656157    0.5852640506          0.1812
C581       C    0.6792482974    0.0220952591    0.8374154712          0.1812
C582       C    0.7002245053    0.9933882195    0.8592435911          0.1812
C583       C    0.7076906026    0.9940426371    0.9110573907          0.1812
C584       C    0.6941804921    0.0234040944    0.9410430703          0.1812
C585       C    0.6732042842    0.0521111341    0.9192149504          0.1812
C586       C    0.6657381868    0.0514567164    0.8674011509          0.1812
H587       H    0.6737214461    0.0216108200    0.7990598014          0.1812
H588       H    0.7232173534    0.9727938092    0.9272161272          0.1812
H589       H    0.6997073433    0.0238885335    0.9793987401          0.1812
H590       H    0.6502114360    0.0727055444    0.8512424143          0.1812
C571       C    0.9004269888    0.2919752478    0.6432989603          0.1812
C572       C    0.9080834516    0.2989129062    0.5922241129          0.1812
C573       C    0.9433358166    0.2896841720    0.5715558370          0.1812
C574       C    0.9709317188    0.2735177794    0.6019624085          0.1812
C575       C    0.9632752560    0.2665801211    0.6530372559          0.1812
C576       C    0.9280228910    0.2758088553    0.6737055318          0.1812
H577       H    0.8743310823    0.2988069082    0.6585988529          0.1812
H578       H    0.9490042188    0.2948191100    0.5337497623          0.1812
H579       H    0.9970276254    0.2666861190    0.5866625159          0.1812
H580       H    0.9223544889    0.2706739173    0.7115116065          0.1812
C561       C    0.0757243817    0.2968493031    0.8080524386          0.1812
C562       C    0.0411688463    0.2739445787    0.8057885037          0.1812
C563       C    0.0158642303    0.2726588543    0.8468332602          0.1812
C564       C    0.0251151497    0.2942778542    0.8901419515          0.1812
C565       C    0.0596706851    0.3171825787    0.8924058863          0.1812
C566       C    0.0849753011    0.3184683031    0.8513611299          0.1812
H567       H    0.0944563702    0.2978010732    0.7776686578          0.1812
H568       H    0.9902855449    0.2557048180    0.8451588026          0.1812
H569       H    0.0063831612    0.2933260842    0.9205257322          0.1812
H570       H    0.1105539864    0.3354223394    0.8530355874          0.1812
C551       C    0.3023799974    0.0697792993    0.7112421413          0.1812
C552       C    0.2626222656    0.0628505356    0.7045909180          0.1812
C553       C    0.2468989023    0.0620985428    0.6560406776          0.1812
C554       C    0.2709332707    0.0682753139    0.6141416605          0.1812
C555       C    0.3106910024    0.0752040776    0.6207928838          0.1812
C556       C    0.3264143658    0.0759560704    0.6693431242          0.1812
H557       H    0.3140193703    0.0703359693    0.7471819297          0.1812
H558       H    0.2174698729    0.0569698727    0.6511159293          0.1812
H559       H    0.2592938978    0.0677186439    0.5782018722          0.1812
H560       H    0.3558433952    0.0810847405    0.6742678726          0.1812
C541       C    0.2724003102    0.9638578100    0.9361990432          0.1812
C542       C    0.2702165185    0.9259169156    0.9183019810          0.1812
C543       C    0.2546595760    0.9175278229    0.8706294395          0.1812
C544       C    0.2412864253    0.9470796246    0.8408539602          0.1812
C545       C    0.2434702170    0.9850205190    0.8587510224          0.1812
C546       C    0.2590271595    0.9934096117    0.9064235638          0.1812
H547       H    0.2839164884    0.9700679176    0.9714891063          0.1812
H548       H    0.2530426488    0.8894438422    0.8573805890          0.1812
H549       H    0.2297702471    0.9408695170    0.8055638970          0.1812
H550       H    0.2606440867    0.0214935924    0.9196724143          0.1812
C531       C    0.8693694401    0.9945900540    0.7715894113          0.1812
C532       C    0.8904826644    0.9676753741    0.7461899311          0.1812
C533       C    0.8728853319    0.9317815012    0.7328490232          0.1812
C534       C    0.8341747751    0.9228023083    0.7449075956          0.1812
C535       C    0.8130615508    0.9497169882    0.7703070758          0.1812
C536       C    0.8306588832    0.9856108611    0.7836479837          0.1812
H537       H    0.8823960368    0.0211608431    0.7814651484          0.1812
H538       H    0.8885127086    0.9118582148    0.7140479960          0.1812
H539       H    0.8211481783    0.8962315192    0.7350318585          0.1812
H540       H    0.8150315065    0.0055341475    0.8024490109          0.1812
C521       C    0.0283062840    0.0851977564    0.7304610880          0.1812
C522       C    0.9901822721    0.0696299443    0.7305144499          0.1812
C523       C    0.9597798249    0.0940077453    0.7276792921          0.1812
C524       C    0.9675013896    0.1339533583    0.7247907724          0.1812
C525       C    0.0056254015    0.1495211704    0.7247374105          0.1812
C526       C    0.0360278487    0.1251433694    0.7275725683          0.1812
H527       H    0.0508119916    0.0671518518    0.7325598412          0.1812
H528       H    0.9315596047    0.0824852776    0.7277187007          0.1812
H529       H    0.9449956819    0.1519992629    0.7226920192          0.1812
H530       H    0.0642480689    0.1366658371    0.7275331597          0.1812
C511       C    0.0773220467    0.9817150741    0.7541117338          0.1812
C512       C    0.0526317368    0.0113690897    0.7462749231          0.1812
C513       C    0.0667056984    0.0498737787    0.7503218223          0.1812
C514       C    0.1054699701    0.0587244521    0.7622055322          0.1812
C515       C    0.1301602801    0.0290704365    0.7700423429          0.1812
C516       C    0.1160863184    0.9905657475    0.7659954437          0.1812
H517       H    0.0669036595    0.9532116030    0.7511159772          0.1812
H518       H    0.0484304641    0.0718247942    0.7445211709          0.1812
H519       H    0.1158883573    0.0872279232    0.7652012887          0.1812
H520       H    0.1343615527    0.9686147320    0.7717960950          0.1812
C501       C    0.0100303846    0.6954428797    0.6737289230          0.1812
C502       C    0.9780884428    0.7108902177    0.6511758216          0.1812
C503       C    0.9736615959    0.7094961049    0.5987885174          0.1812
C504       C    0.0011766908    0.6926546540    0.5689543148          0.1812
C505       C    0.0331186326    0.6772073160    0.5915074162          0.1812
C506       C    0.0375454795    0.6786014288    0.6438947203          0.1812
H507       H    0.0133074012    0.6964748852    0.7125091351          0.1812
H508       H    0.9500181440    0.7209301255    0.5820931340          0.1812
H509       H    0.9978996742    0.6916226485    0.5301741027          0.1812
H510       H    0.0611889314    0.6671674082    0.6605901038          0.1812
C491       C    0.8829755980    0.6684928032    0.8002252930          0.1812
C492       C    0.9007843004    0.7056663410    0.8036169995          0.1812
C493       C    0.9096501965    0.7217697663    0.8508593638          0.1812
C494       C    0.9007073902    0.7006996537    0.8947100215          0.1812
C495       C    0.8828986879    0.6635261158    0.8913183150          0.1812
C496       C    0.8740327918    0.6474226906    0.8440759507          0.1812
H497       H    0.8764125321    0.6565720858    0.7652536726          0.1812
H498       H    0.9228324152    0.7492859965    0.8533713881          0.1812
H499       H    0.9072704562    0.7126203711    0.9296816419          0.1812
H500       H    0.8608505731    0.6199064604    0.8415639264          0.1812
C481       C    0.9502049384    0.8911460030    0.6823360176          0.1812
C482       C    0.9518592290    0.9090883326    0.7295548576          0.1812
C483       C    0.9456649410    0.8871274562    0.7733367122          0.1812
C484       C    0.9378163623    0.8472242503    0.7698997267          0.1812
C485       C    0.9361620717    0.8292819207    0.7226808866          0.1812
C486       C    0.9423563598    0.8512427971    0.6788990320          0.1812
H487       H    0.9547903205    0.9074027556    0.6499260733          0.1812
H488       H    0.9468892450    0.9004076098    0.8082893154          0.1812
H489       H    0.9332309802    0.8309674977    0.8023096709          0.1812
H490       H    0.9411320558    0.8379626435    0.6439464289          0.1812
C471       C    0.7303902136    0.5207717472    0.8750130272          0.1812
C472       C    0.7500162339    0.4926628307    0.8497122669          0.1812
C473       C    0.7896638947    0.4904342960    0.8569322191          0.1812
C474       C    0.8096855353    0.5163146778    0.8894529315          0.1812
C475       C    0.7900595151    0.5444235942    0.9147536918          0.1812
C476       C    0.7504118542    0.5466521290    0.9075337396          0.1812
H477       H    0.7010406465    0.5224214418    0.8696683872          0.1812
H478       H    0.8041922599    0.4696281054    0.8382049148          0.1812
H479       H    0.8390351025    0.5146649832    0.8947975715          0.1812
H480       H    0.7358834890    0.5674583196    0.9262610439          0.1812
C461       C    0.7676493757    0.4405433667    0.6655556241          0.1812
C462       C    0.7486217092    0.4136435837    0.6976568892          0.1812
C463       C    0.7501436322    0.3741710653    0.6882115215          0.1812
C464       C    0.7706932218    0.3615983298    0.6466648888          0.1812
C465       C    0.7897208884    0.3884981127    0.6145636237          0.1812
C466       C    0.7881989653    0.4279706312    0.6240089914          0.1812
H467       H    0.7665227574    0.4697632830    0.6725476495          0.1812
H468       H    0.7360594692    0.3542586923    0.7119724649          0.1812
H469       H    0.7718198402    0.3323784135    0.6396728634          0.1812
H470       H    0.8022831284    0.4478830041    0.6002480480          0.1812
C451       C    0.5741623582    0.2351285920    0.8586026707          0.1812
C452       C    0.5579213600    0.2147826819    0.8174894691          0.1812
C453       C    0.5561510316    0.1744557401    0.8172557716          0.1812
C454       C    0.5706217014    0.1544747083    0.8581352756          0.1812
C455       C    0.5868626996    0.1748206184    0.8992484771          0.1812
C456       C    0.5886330280    0.2151475603    0.8994821747          0.1812
H457       H    0.5754728611    0.2649810036    0.8587756676          0.1812
H458       H    0.5441294465    0.1593944935    0.7868239185          0.1812
H459       H    0.5693111985    0.1246222968    0.8579622787          0.1812
H460       H    0.6006546132    0.2302088069    0.9299140277          0.1812
C441       C    0.4945415705    0.2002962770    0.6180373559          0.1812
C442       C    0.4804463527    0.2095580120    0.6656046380          0.1812
C443       C    0.4429757889    0.1968220341    0.6796199833          0.1812
C444       C    0.4196004428    0.1748243211    0.6460680464          0.1812
C445       C    0.4336956606    0.1655625861    0.5985007642          0.1812
C446       C    0.4711662245    0.1782985641    0.5844854190          0.1812
H447       H    0.5222795204    0.2097242088    0.6076623601          0.1812
H448       H    0.4325413729    0.2036771343    0.7148295600          0.1812
H449       H    0.3918624929    0.1653963893    0.6564430422          0.1812
H450       H    0.4816006404    0.1714434638    0.5492758423          0.1812
C431       C    0.1667680671    0.4995142934    0.8784727745          0.1812
C432       C    0.1931515218    0.4847612199    0.8449386028          0.1812
C433       C    0.1994322660    0.4454099776    0.8454303491          0.1812
C434       C    0.1793295554    0.4208118087    0.8794562671          0.1812
C435       C    0.1529461006    0.4355648822    0.9129904388          0.1812
C436       C    0.1466653565    0.4749161246    0.9124986925          0.1812
H437       H    0.1621186850    0.5286444339    0.8781087546          0.1812
H438       H    0.2189614042    0.4344885596    0.8206084900          0.1812
H439       H    0.1839789374    0.3916816683    0.8798202870          0.1812
H440       H    0.1271362183    0.4858375425    0.9373205516          0.1812
C421       C    0.1754746810    0.5956180981    0.6972852248          0.1812
C422       C    0.1942307116    0.5613270553    0.6933844193          0.1812
C423       C    0.1917085261    0.5398780710    0.6487554963          0.1812
C424       C    0.1704303101    0.5527201297    0.6080273789          0.1812
C425       C    0.1516742795    0.5870111726    0.6119281843          0.1812
C426       C    0.1541964650    0.6084601568    0.6565571073          0.1812
H427       H    0.1773417534    0.6114959176    0.7303222197          0.1812
H428       H    0.2055915935    0.5144952842    0.6458667216          0.1812
H429       H    0.1685632377    0.5368423102    0.5749903839          0.1812
H430       H    0.1403133976    0.6338429437    0.6594458820          0.1812
C411       C    0.5794340337    0.5003018304    0.7534495509          0.1812
C412       C    0.5504541903    0.4719979638    0.7655124846          0.1812
C413       C    0.5602379712    0.4356276205    0.7818444936          0.1812
C414       C    0.5990015955    0.4275611437    0.7861135689          0.1812
C415       C    0.6279814389    0.4558650102    0.7740506352          0.1812
C416       C    0.6181976580    0.4922353536    0.7577186261          0.1812
H417       H    0.5721914946    0.5272253313    0.7413596221          0.1812
H418       H    0.5387875037    0.4146760480    0.7907739511          0.1812
H419       H    0.6062441346    0.4006376427    0.7982034976          0.1812
H420       H    0.6396481255    0.5131869260    0.7487891686          0.1812
C401       C    0.4633448349    0.3803087133    0.7645405690          0.1812
C402       C    0.4912697887    0.4102865775    0.7553230876          0.1812
C403       C    0.5284799253    0.4019100131    0.7407521684          0.1812
C404       C    0.5377651081    0.3635555845    0.7353987306          0.1812
C405       C    0.5098401543    0.3335777203    0.7446162120          0.1812
C406       C    0.4726300177    0.3419542846    0.7591871312          0.1812
H407       H    0.4357996688    0.3865095466    0.7753268339          0.1812
H408       H    0.5491510544    0.4240992566    0.7339289602          0.1812
H409       H    0.5653102742    0.3573547511    0.7246124657          0.1812
H410       H    0.4519588885    0.3197650412    0.7660103394          0.1812
C391       C    0.3642756104    0.4747163800    0.7573936642          0.1812
C392       C    0.3927462437    0.5047274151    0.7630993784          0.1812
C393       C    0.3822632947    0.5423470616    0.7717718531          0.1812
C394       C    0.3433097125    0.5499556730    0.7747386136          0.1812
C395       C    0.3148390793    0.5199446380    0.7690328993          0.1812
C396       C    0.3253220282    0.4823249915    0.7603604246          0.1812
H397       H    0.3720357155    0.4468680703    0.7509737803          0.1812
H398       H    0.4033368245    0.5645623136    0.7759954770          0.1812
H399       H    0.3355496075    0.5778039827    0.7811584974          0.1812
H400       H    0.3042484985    0.4601097394    0.7561368008          0.1812
C381       C    0.3441363994    0.7693278976    0.8174915253          0.1812
C382       C    0.3833523875    0.7628607886    0.8142275481          0.1812
C383       C    0.4086545688    0.7763324678    0.8522399551          0.1812
C384       C    0.3947407619    0.7962712561    0.8935163393          0.1812
C385       C    0.3555247738    0.8027383652    0.8967803165          0.1812
C386       C    0.3302225925    0.7892666859    0.8587679095          0.1812
H387       H    0.3254062132    0.7593553559    0.7893524708          0.1812
H388       H    0.4376829046    0.7715459630    0.8498251737          0.1812
H389       H    0.4134709481    0.8062437979    0.9216553938          0.1812
H390       H    0.3011942567    0.7940531908    0.8611826909          0.1812
C371       C    0.4563867366    0.7657261353    0.6105538068          0.1812
C372       C    0.4622756457    0.7677212171    0.6626723196          0.1812
C373       C    0.4926988969    0.7914396314    0.6823089229          0.1812
C374       C    0.5172332390    0.8131629640    0.6498270136          0.1812
C375       C    0.5113443299    0.8111678822    0.5977085008          0.1812
C376       C    0.4809210788    0.7874494679    0.5780718974          0.1812
H377       H    0.4338656286    0.7481683481    0.5960176199          0.1812
H378       H    0.4970588092    0.7929171345    0.7208874823          0.1812
H379       H    0.5397543470    0.8307207512    0.6643632005          0.1812
H380       H    0.4765611664    0.7859719648    0.5394933381          0.1812
C361       C    0.4621037501    0.6351816629    0.7733517946          0.1812
C362       C    0.4315646192    0.6435191268    0.7416901509          0.1812
C363       C    0.4108199434    0.6137212253    0.7160997508          0.1812
C364       C    0.4206143985    0.5755858599    0.7221709943          0.1812
C365       C    0.4511535294    0.5672483961    0.7538326381          0.1812
C366       C    0.4718982052    0.5970462976    0.7794230382          0.1812
H367       H    0.4774601984    0.6572398497    0.7922953376          0.1812
H368       H    0.3882143307    0.6198916434    0.6926631047          0.1812
H369       H    0.4052579502    0.5535276731    0.7032274514          0.1812
H370       H    0.4945038179    0.5908758795    0.8028596842          0.1812
C351       C    0.1533994412    0.4822349105    0.1662878363          0.1812
C352       C    0.1891952634    0.4698077302    0.1809691478          0.1812
C353       C    0.2034158681    0.4371845787    0.1585330910          0.1812
C354       C    0.1818406504    0.4169886075    0.1214157228          0.1812
C355       C    0.1460448281    0.4294157878    0.1067344114          0.1812
C356       C    0.1318242235    0.4620389392    0.1291704681          0.1812
H357       H    0.1428725001    0.5063845161    0.1828963459          0.1812
H358       H    0.2299122585    0.4279849917    0.1693994355          0.1812
H359       H    0.1923675915    0.3928390019    0.1048072133          0.1812
H360       H    0.1053278330    0.4712385263    0.1183041236          0.1812
C341       C    0.1724189385    0.6037851373    0.3715177794          0.1812
C342       C    0.1574323349    0.5816995157    0.4119033090          0.1812
C343       C    0.1614298367    0.5419132049    0.4129344099          0.1812
C344       C    0.1804139421    0.5242125156    0.3735799812          0.1812
C345       C    0.1954005457    0.5462981373    0.3331944516          0.1812
C346       C    0.1914030439    0.5860844481    0.3321633507          0.1812
H347       H    0.1694597488    0.6332373414    0.3707544969          0.1812
H348       H    0.1503369326    0.5255642471    0.4428276680          0.1812
H349       H    0.1833731318    0.4947603115    0.3743432637          0.1812
H350       H    0.2024959480    0.6024334058    0.3022700926          0.1812
C331       C    0.4086942204    0.8030553459    0.1679460897          0.1812
C332       C    0.4038606029    0.7631708223    0.1752442924          0.1812
C333       C    0.3788222463    0.7407811458    0.1441339383          0.1812
C334       C    0.3586175072    0.7582759928    0.1057253815          0.1812
C335       C    0.3634511247    0.7981605163    0.0984271789          0.1812
C336       C    0.3884894813    0.8205501929    0.1295375330          0.1812
H337       H    0.4272291077    0.8196295220    0.1909758324          0.1812
H338       H    0.3752436274    0.7112580546    0.1495350574          0.1812
H339       H    0.3400826199    0.7417018166    0.0826956389          0.1812
H340       H    0.3920681003    0.8500732840    0.1241364139          0.1812
C321       C    0.4800570814    0.8138887636    0.3285041871          0.1812
C322       C    0.4824454498    0.7738623204    0.3284788566          0.1812
C323       C    0.5034671949    0.7562953167    0.3660214584          0.1812
C324       C    0.5221005714    0.7787547561    0.4035893907          0.1812
C325       C    0.5197122030    0.8187811993    0.4036147213          0.1812
C326       C    0.4986904579    0.8363482030    0.3660721194          0.1812
H327       H    0.4644955298    0.8268929092    0.3007129104          0.1812
H328       H    0.5052357220    0.7266673298    0.3660038969          0.1812
H329       H    0.5376621230    0.7657506105    0.4313806674          0.1812
H330       H    0.4969219308    0.8659761900    0.3660896809          0.1812
C311       C    0.7485288070    0.5507830562    0.1724384170          0.1812
C312       C    0.7561798582    0.5127076662    0.1837169380          0.1812
C313       C    0.7848981400    0.4947499456    0.1573441471          0.1812
C314       C    0.8059653708    0.5148676150    0.1196928351          0.1812
C315       C    0.7983143197    0.5529430050    0.1084143141          0.1812
C316       C    0.7695960378    0.5709007255    0.1347871050          0.1812
H317       H    0.7272698191    0.5640764337    0.1919611324          0.1812
H318       H    0.7905623297    0.4665661090    0.1656916337          0.1812
H319       H    0.8272243587    0.5015742375    0.1001701197          0.1812
H320       H    0.7639318481    0.5990845622    0.1264396184          0.1812
C301       C    0.8034831766    0.4290909656    0.3917988132          0.1812
C302       C    0.7855059156    0.3958104031    0.4131900912          0.1812
C303       C    0.7493139136    0.3816889585    0.3958147377          0.1812
C304       C    0.7310991725    0.4008480764    0.3570481062          0.1812
C305       C    0.7490764335    0.4341286389    0.3356568282          0.1812
C306       C    0.7852684355    0.4482500835    0.3530321816          0.1812
H307       H    0.8302746586    0.4395445025    0.4046610878          0.1812
H308       H    0.7360060635    0.3570543576    0.4116479358          0.1812
H309       H    0.7043076905    0.3903945395    0.3441858315          0.1812
H310       H    0.7985762856    0.4728846844    0.3371989835          0.1812
C291       C    0.3687563808    0.4671289694    0.2604145369          0.1812
C292       C    0.3933313303    0.5006089623    0.2588334073          0.1812
C293       C    0.3779401172    0.5368012132    0.2575265314          0.1812
C294       C    0.3379739547    0.5395134710    0.2578007851          0.1812
C295       C    0.3133990052    0.5060334780    0.2593819148          0.1812
C296       C    0.3287902183    0.4698412272    0.2606887907          0.1812
H297       H    0.3801498761    0.4403373032    0.2613819645          0.1812
H298       H    0.3961299204    0.5615841303    0.2563561435          0.1812
H299       H    0.3265804594    0.5663051372    0.2568333575          0.1812
H300       H    0.3106004151    0.4450583100    0.2618591786          0.1812
C281       C    0.4870914479    0.6331370528    0.2451597806          0.1812
C282       C    0.4508081126    0.6476533130    0.2515142235          0.1812
C283       C    0.4185115395    0.6224158616    0.2602871541          0.1812
C284       C    0.4224983017    0.5826621499    0.2627056420          0.1812
C285       C    0.4587816369    0.5681458897    0.2563511992          0.1812
C286       C    0.4910782101    0.5933833411    0.2475782685          0.1812
H287       H    0.5109993008    0.6518193220    0.2386655332          0.1812
H288       H    0.3916537216    0.6331599471    0.2649909678          0.1812
H289       H    0.3985904488    0.5639798807    0.2691998894          0.1812
H290       H    0.5179360280    0.5826392556    0.2428744548          0.1812
C271       C    0.5760502084    0.5128327001    0.2568721259          0.1812
C272       C    0.5520484083    0.4790325643    0.2601582412          0.1812
C273       C    0.5681007013    0.4432956447    0.2644607709          0.1812
C274       C    0.6081547945    0.4413588607    0.2654771853          0.1812
C275       C    0.6321565946    0.4751589964    0.2621910699          0.1812
C276       C    0.6161043015    0.5108959161    0.2578885402          0.1812
H277       H    0.5641673421    0.5392873029    0.2536871364          0.1812
H278       H    0.5503351622    0.4182757734    0.2668932779          0.1812
H279       H    0.6200376608    0.4149042578    0.2686621748          0.1812
H280       H    0.6338698407    0.5359157874    0.2554560332          0.1812
C261       C    0.5794896829    0.2237471089    0.1698307578          0.1812
C262       C    0.5399275832    0.2149293990    0.1758435598          0.1812
C263       C    0.5205280277    0.1883898858    0.1436003391          0.1812
C264       C    0.5406905720    0.1706680823    0.1053443165          0.1812
C265       C    0.5802526717    0.1794857922    0.0993315145          0.1812
C266       C    0.5996522271    0.2060253054    0.1315747351          0.1812
H267       H    0.5938503927    0.2433932421    0.1936991160          0.1812
H268       H    0.4912436882    0.1818622084    0.1480499734          0.1812
H269       H    0.5263298621    0.1510219491    0.0814759583          0.1812
H270       H    0.6289365666    0.2125529828    0.1271251009          0.1812
C251       C    0.4077887058    0.1889175321    0.3828977641          0.1812
C252       C    0.4265260094    0.1582421956    0.4037474188          0.1812
C253       C    0.4633350925    0.1503772853    0.3869400406          0.1812
C254       C    0.4814068720    0.1731877115    0.3492830077          0.1812
C255       C    0.4626695684    0.2038630480    0.3284333530          0.1812
C256       C    0.4258604853    0.2117279584    0.3452407312          0.1812
H257       H    0.3805404235    0.1947396086    0.3953395895          0.1812
H258       H    0.4772055429    0.1276712613    0.4023723489          0.1812
H259       H    0.5086551543    0.1673656350    0.3368411822          0.1812
H260       H    0.4119900348    0.2344339823    0.3298084228          0.1812
C241       C    0.4571701915    0.3451525692    0.2537773350          0.1812
C242       C    0.4937688600    0.3307252183    0.2515336817          0.1812
C243       C    0.5266858985    0.3561000800    0.2517198417          0.1812
C244       C    0.5230042685    0.3959022927    0.2541496548          0.1812
C245       C    0.4864056001    0.4103296436    0.2563933080          0.1812
C246       C    0.4534885616    0.3849547819    0.2562071481          0.1812
H247       H    0.4328030332    0.3263685807    0.2536395283          0.1812
H248       H    0.5537771445    0.3454218092    0.2500591034          0.1812
H249       H    0.5473714269    0.4146862812    0.2542874615          0.1812
H250       H    0.4263973155    0.3956330527    0.2578678864          0.1812
loop_
_geom_bond_atom_site_label_1
_geom_bond_atom_site_label_2
_geom_bond_distance
_geom_bond_site_symmetry_2
_ccdc_geom_bond_type
C1           N2 1.540       .   A
C1           N6 1.540       .   A
C1         C262 1.476       .   S
N2           C3 1.540       .   A
C3           N4 1.540       .   A
C3         C242 1.575       .   S
N4           C5 1.540       .   A
C5           N6 1.540       .   A
C5         C255 1.635       .   S
C7           C8 1.540       .   A
C7          C12 1.540       .   A
C7         C245 1.575       .   S
C8           C9 1.540       .   A
C8         C272 1.558       .   S
C9          C10 1.540       .   A
C9          H14 1.140       .   S
C10         C11 1.540       .   A
C10        C285 1.563       .   S
C11         C12 1.540       .   A
C11        C292 1.565       .   S
C12         H13 1.140       .   S
C15         N16 1.540       .   A
C15         N20 1.540       .   A
C15        C305 1.453       .   S
N16         C17 1.540       .   A
C17         N18 1.540       .   A
C17        C275 1.558       .   S
N18         C19 1.540       .   A
C19         N20 1.540       .   A
C19        C312 1.628       .   S
C21         N22 1.540       .   A
C21         N26 1.540       .   A
C21        C332 1.502       .   S
N22         C23 1.540       .   A
C23         N24 1.540       .   A
C23        C282 1.563       .   S
N24         C25 1.540       .   A
C25         N26 1.540       .   A
C25        C322 1.642       .   S
C27         N28 1.540       .   A
C27         N32 1.540       .   A
C27        C345 1.468       .   S
N28         C29 1.540       .   A
C29         N30 1.540       .   A
C29        C295 1.565       .   S
N30         C31 1.540       .   A
C31         N32 1.540       .   A
C31        C352 1.602       .   S
C33         N34 1.540       .   A
C33         N38 1.540       .   A
C33        C382 1.608       .   S
N34         C35 1.540       .   A
C35         N36 1.540       .   A
C35        C372 1.568       .   S
N36         C37 1.540       .   A
C37         N38 1.540       .   A
C37        C362 1.627       .   S
C39         C40 1.540       .   A
C39         C44 1.540       .   A
C39        C365 1.627       .   S
C40         C41 1.540       .   A
C40        C392 1.580       .   S
C41         C42 1.540       .   A
C41         H46 1.140       .   S
C42         C43 1.540       .   A
C42        C402 1.607       .   S
C43         C44 1.540       .   A
C43        C412 1.592       .   S
C44         H45 1.140       .   S
C47         N48 1.540       .   A
C47         N52 1.540       .   A
C47        C422 1.570       .   S
N48         C49 1.540       .   A
C49         N50 1.540       .   A
C49        C395 1.580       .   S
N50         C51 1.540       .   A
C51         N52 1.540       .   A
C51        C432 1.544       .   S
C53         N54 1.540       .   A
C53         N58 1.540       .   A
C53        C452 1.595       .   S
N54         C55 1.540       .   A
C55         N56 1.540       .   A
C55        C405 1.607       .   S
N56         C57 1.540       .   A
C57         N58 1.540       .   A
C57        C442 1.551       .   S
C59         N60 1.540       .   A
C59         N64 1.540       .   A
C59        C462 1.621       .   S
N60         C61 1.540       .   A
C61         N62 1.540       .   A
C61        C415 1.592       .   S
N62         C63 1.540       .   A
C63         N64 1.540       .   A
C63        C472 1.563       .   S
C65         N66 1.540       .   A
C65         N70 1.540       .   A
C65        C492 1.565       .   S
N66         C67 1.540       .   A
C67         N68 1.540       .   A
C67        C485 1.583       .   S
N68         C69 1.540       .   A
C69         N70 1.540       .   A
C69        C502 1.648       .   S
C71         C72 1.540       .   A
C71         C76 1.540       .   A
C71        C532 1.651       .   S
C72         C73 1.540       .   A
C72        C482 1.583       .   S
C73         C74 1.540       .   A
C73         H78 1.140       .   S
C74         C75 1.540       .   A
C74        C512 1.683       .   S
C75         C76 1.540       .   A
C75        C522 1.571       .   S
C76         H77 1.140       .   S
C79         N80 1.540       .   A
C79         N84 1.540       .   A
C79        C552 1.682       .   S
N80         C81 1.540       .   A
C81         N82 1.540       .   A
C81        C515 1.683   1_445   S
N82         C83 1.540       .   A
C83         N84 1.540       .   A
C83        C545 1.689       .   S
C85         N86 1.540       .   A
C85         N90 1.540       .   A
C85        C562 1.586       .   S
N86         C87 1.540       .   A
C87         N88 1.540       .   A
C87        C525 1.571   1_445   S
N88         C89 1.540       .   A
C89         N90 1.540       .   A
C89        C575 1.639       .   S
C91         N92 1.540       .   A
C91         N96 1.540       .   A
C91        C592 1.657       .   S
N92         C93 1.540       .   A
C93         N94 1.540       .   A
C93        C535 1.651       .   S
N94         C95 1.540       .   A
C95         N96 1.540       .   A
C95        C582 1.696       .   S
C97         N98 1.540       .   A
C97        N102 1.540       .   A
C97        C612 1.694       .   S
N98         C99 1.540       .   A
C99        N100 1.540       .   A
C99        C602 1.605       .   S
N100       C101 1.540       .   A
C101       N102 1.540       .   A
C101       C622 1.480       .   S
C103       C104 1.540       .   A
C103       C108 1.540       .   A
C103       C632 1.542       .   S
C104       C105 1.540       .   A
C104       C605 1.605   1_565   S
C105       C106 1.540       .   A
C105       H110 1.140       .   S
C106       C107 1.540       .   A
C106       C652 1.551       .   S
C107       C108 1.540       .   A
C107       C642 1.649       .   S
C108       H109 1.140       .   S
C111       N112 1.540       .   A
C111       N116 1.540       .   A
C111       C675 1.630       .   S
N112       C113 1.540       .   A
C113       N114 1.540       .   A
C113       C635 1.542   1_545   S
N114       C115 1.540       .   A
C115       N116 1.540       .   A
C115       C662 1.458       .   S
C117       N118 1.540       .   A
C117       N122 1.540       .   A
C117       C685 1.649       .   S
N118       C119 1.540       .   A
C119       N120 1.540       .   A
C119       C645 1.649   1_455   S
N120       C121 1.540       .   A
C121       N122 1.540       .   A
C121       C692 1.536       .   S
C123       N124 1.540       .   A
C123       N128 1.540       .   A
C123       C712 1.635       .   S
N124       C125 1.540       .   A
C125       N126 1.540       .   A
C125       C655 1.551   1_455   S
N126       C127 1.540       .   A
C127       N128 1.540       .   A
C127       C705 1.473       .   S
O129      Cu137 1.951       .   S
O129       C139 1.250       .   A
O130      Cu137 1.951       .   S
O130       C140 1.250       .   A
O131      Cu137 1.951       .   S
O131       C141 1.250       .   A
O132      Cu137 1.951       .   S
O132       C142 1.250       .   A
O133      Cu138 1.951       .   S
O133       C142 1.250       .   A
O134      Cu138 1.951       .   S
O134       C141 1.251       .   A
O135      Cu138 1.951       .   S
O135       C140 1.250       .   A
O136      Cu138 1.951       .   S
O136       C139 1.250       .   A
Cu137     Cu138 2.630       .   S
C139       C435 1.544   1_554   S
C140       C615 1.694   1_455   S
C141       C565 1.586   1_554   S
C142       C355 1.602       .   S
O143      Cu151 1.951       .   S
O143       C153 1.250       .   A
O144      Cu151 1.951       .   S
O144       C154 1.250       .   A
O145      Cu151 1.951       .   S
O145       C155 1.250       .   A
O146      Cu151 1.951       .   S
O146       C156 1.250       .   A
O147      Cu152 1.951       .   S
O147       C156 1.250       .   A
O148      Cu152 1.951       .   S
O148       C155 1.251       .   A
O149      Cu152 1.951       .   S
O149       C154 1.250       .   A
O150      Cu152 1.951       .   S
O150       C153 1.250       .   A
Cu151     Cu152 2.630       .   S
C153       C265 1.476       .   S
C154       C585 1.696   1_544   S
C155       C665 1.458       .   S
C156       C455 1.595   1_554   S
O157      Cu165 1.951       .   S
O157       C167 1.250       .   A
O158      Cu165 1.951       .   S
O158       C168 1.250       .   A
O159      Cu165 1.951       .   S
O159       C169 1.250       .   A
O160      Cu165 1.951       .   S
O160       C170 1.250       .   A
O161      Cu166 1.951       .   S
O161       C170 1.250       .   A
O162      Cu166 1.951       .   S
O162       C169 1.251       .   A
O163      Cu166 1.951       .   S
O163       C168 1.250       .   A
O164      Cu166 1.951       .   S
O164       C167 1.250       .   A
Cu165     Cu166 2.630       .   S
C167       C682 1.649   1_655   S
C168       C475 1.563   1_554   S
C169       C315 1.628       .   S
C170       C495 1.565   1_554   S
O171      Cu179 1.951       .   S
O171       C181 1.250       .   A
O172      Cu179 1.951       .   S
O172       C182 1.250       .   A
O173      Cu179 1.951       .   S
O173       C183 1.250       .   A
O174      Cu179 1.951       .   S
O174       C184 1.250       .   A
O175      Cu180 1.951       .   S
O175       C184 1.250       .   A
O176      Cu180 1.951       .   S
O176       C183 1.251       .   A
O177      Cu180 1.951       .   S
O177       C182 1.250       .   A
O178      Cu180 1.951       .   S
O178       C181 1.250       .   A
Cu179     Cu180 2.630       .   S
C181       C335 1.502       .   S
C182       C542 1.689   1_564   S
C183       C702 1.473       .   S
C184       C385 1.608   1_554   S
O185      Cu193 1.951       .   S
O185       C195 1.250       .   A
O186      Cu193 1.951       .   S
O186       C196 1.250       .   A
O187      Cu193 1.951       .   S
O187       C197 1.250       .   A
O188      Cu193 1.951       .   S
O188       C198 1.250       .   A
O189      Cu194 1.951       .   S
O189       C198 1.250       .   A
O190      Cu194 1.951       .   S
O190       C197 1.251       .   A
O191      Cu194 1.951       .   S
O191       C196 1.250       .   A
O192      Cu194 1.951       .   S
O192       C195 1.250       .   A
Cu193     Cu194 2.630       .   S
C195       C342 1.468       .   S
C196       C505 1.648   1_455   S
C197       C695 1.536       .   S
C198       C425 1.570       .   S
O199      Cu207 1.951       .   S
O199       C209 1.250       .   A
O200      Cu207 1.951       .   S
O200       C210 1.250       .   A
O201      Cu207 1.951       .   S
O201       C211 1.250       .   A
O202      Cu207 1.951       .   S
O202       C212 1.250       .   A
O203      Cu208 1.951       .   S
O203       C212 1.250       .   A
O204      Cu208 1.951       .   S
O204       C211 1.251       .   A
O205      Cu208 1.951       .   S
O205       C210 1.250       .   A
O206      Cu208 1.951       .   S
O206       C209 1.250       .   A
Cu207     Cu208 2.630       .   S
C209       C715 1.635   1_545   S
C210       C445 1.551       .   S
C211       C252 1.635       .   S
C212       C555 1.682       .   S
O213      Cu221 1.951       .   S
O213       C223 1.250       .   A
O214      Cu221 1.951       .   S
O214       C224 1.250       .   A
O215      Cu221 1.951       .   S
O215       C225 1.250       .   A
O216      Cu221 1.951       .   S
O216       C226 1.250       .   A
O217      Cu222 1.951       .   S
O217       C226 1.250       .   A
O218      Cu222 1.951       .   S
O218       C225 1.251       .   A
O219      Cu222 1.951       .   S
O219       C224 1.250       .   A
O220      Cu222 1.951       .   S
O220       C223 1.250       .   A
Cu221     Cu222 2.630       .   S
C223       C625 1.480       .   S
C224       C465 1.621       .   S
C225       C302 1.453       .   S
C226       C572 1.639   1_655   S
O227      Cu235 1.951       .   S
O227       C237 1.250       .   A
O228      Cu235 1.951       .   S
O228       C238 1.250       .   A
O229      Cu235 1.951       .   S
O229       C239 1.250       .   A
O230      Cu235 1.951       .   S
O230       C240 1.250       .   A
O231      Cu236 1.951       .   S
O231       C240 1.250       .   A
O232      Cu236 1.951       .   S
O232       C239 1.251       .   A
O233      Cu236 1.951       .   S
O233       C238 1.250       .   A
O234      Cu236 1.951       .   S
O234       C237 1.250       .   A
Cu235     Cu236 2.630       .   S
C237       C375 1.568       .   S
C238       C672 1.630   1_565   S
C239       C325 1.642       .   S
C240       C595 1.657       .   S
C711       C712 1.540       .   A
C711       C716 1.540       .   A
C711       H717 1.140       .   S
C712       C713 1.540       .   A
C713       C714 1.540       .   A
C713       H718 1.140       .   S
C714       C715 1.540       .   A
C714       H719 1.140       .   S
C715       C716 1.540       .   A
C716       H720 1.140       .   S
C701       C702 1.540       .   A
C701       C706 1.540       .   A
C701       H707 1.140       .   S
C702       C703 1.540       .   A
C703       C704 1.540       .   A
C703       H708 1.140       .   S
C704       C705 1.540       .   A
C704       H709 1.140       .   S
C705       C706 1.540       .   A
C706       H710 1.140       .   S
C691       C692 1.540       .   A
C691       C696 1.540       .   A
C691       H697 1.140       .   S
C692       C693 1.540       .   A
C693       C694 1.540       .   A
C693       H698 1.140       .   S
C694       C695 1.540       .   A
C694       H699 1.140       .   S
C695       C696 1.540       .   A
C696       H700 1.140       .   S
C681       C682 1.540       .   A
C681       C686 1.540       .   A
C681       H687 1.140       .   S
C682       C683 1.540       .   A
C683       C684 1.540       .   A
C683       H688 1.140       .   S
C684       C685 1.540       .   A
C684       H689 1.140       .   S
C685       C686 1.540       .   A
C686       H690 1.140       .   S
C671       C672 1.540       .   A
C671       C676 1.540       .   A
C671       H677 1.140       .   S
C672       C673 1.540       .   A
C673       C674 1.540       .   A
C673       H678 1.140       .   S
C674       C675 1.540       .   A
C674       H679 1.140       .   S
C675       C676 1.540       .   A
C676       H680 1.140       .   S
C661       C662 1.540       .   A
C661       C666 1.540       .   A
C661       H667 1.140       .   S
C662       C663 1.540       .   A
C663       C664 1.540       .   A
C663       H668 1.140       .   S
C664       C665 1.540       .   A
C664       H669 1.140       .   S
C665       C666 1.540       .   A
C666       H670 1.140       .   S
C651       C652 1.540       .   A
C651       C656 1.540       .   A
C651       H657 1.140       .   S
C652       C653 1.540       .   A
C653       C654 1.540       .   A
C653       H658 1.140       .   S
C654       C655 1.540       .   A
C654       H659 1.140       .   S
C655       C656 1.540       .   A
C656       H660 1.140       .   S
C641       C642 1.540       .   A
C641       C646 1.540       .   A
C641       H647 1.140       .   S
C642       C643 1.540       .   A
C643       C644 1.540       .   A
C643       H648 1.140       .   S
C644       C645 1.540       .   A
C644       H649 1.140       .   S
C645       C646 1.540       .   A
C646       H650 1.140       .   S
C631       C632 1.540       .   A
C631       C636 1.540       .   A
C631       H637 1.140       .   S
C632       C633 1.540       .   A
C633       C634 1.540       .   A
C633       H638 1.140       .   S
C634       C635 1.540       .   A
C634       H639 1.140       .   S
C635       C636 1.540       .   A
C636       H640 1.140       .   S
C621       C622 1.540       .   A
C621       C626 1.540       .   A
C621       H627 1.140       .   S
C622       C623 1.540       .   A
C623       C624 1.540       .   A
C623       H628 1.140       .   S
C624       C625 1.540       .   A
C624       H629 1.140       .   S
C625       C626 1.540       .   A
C626       H630 1.140       .   S
C611       C612 1.540       .   A
C611       C616 1.540       .   A
C611       H617 1.140       .   S
C612       C613 1.540       .   A
C613       C614 1.540       .   A
C613       H618 1.140       .   S
C614       C615 1.540       .   A
C614       H619 1.140       .   S
C615       C616 1.540       .   A
C616       H620 1.140       .   S
C601       C602 1.540       .   A
C601       C606 1.540       .   A
C601       H607 1.140       .   S
C602       C603 1.540       .   A
C603       C604 1.540       .   A
C603       H608 1.140       .   S
C604       C605 1.540       .   A
C604       H609 1.140       .   S
C605       C606 1.540       .   A
C606       H610 1.140       .   S
C591       C592 1.540       .   A
C591       C596 1.540       .   A
C591       H597 1.140       .   S
C592       C593 1.540       .   A
C593       C594 1.540       .   A
C593       H598 1.140       .   S
C594       C595 1.540       .   A
C594       H599 1.140       .   S
C595       C596 1.540       .   A
C596       H600 1.140       .   S
C581       C582 1.540       .   A
C581       C586 1.540       .   A
C581       H587 1.140       .   S
C582       C583 1.540       .   A
C583       C584 1.540       .   A
C583       H588 1.140       .   S
C584       C585 1.540       .   A
C584       H589 1.140       .   S
C585       C586 1.540       .   A
C586       H590 1.140       .   S
C571       C572 1.540       .   A
C571       C576 1.540       .   A
C571       H577 1.140       .   S
C572       C573 1.540       .   A
C573       C574 1.540       .   A
C573       H578 1.140       .   S
C574       C575 1.540       .   A
C574       H579 1.140       .   S
C575       C576 1.540       .   A
C576       H580 1.140       .   S
C561       C562 1.540       .   A
C561       C566 1.540       .   A
C561       H567 1.140       .   S
C562       C563 1.540       .   A
C563       C564 1.540       .   A
C563       H568 1.140       .   S
C564       C565 1.540       .   A
C564       H569 1.140       .   S
C565       C566 1.540       .   A
C566       H570 1.140       .   S
C551       C552 1.540       .   A
C551       C556 1.540       .   A
C551       H557 1.140       .   S
C552       C553 1.540       .   A
C553       C554 1.540       .   A
C553       H558 1.140       .   S
C554       C555 1.540       .   A
C554       H559 1.140       .   S
C555       C556 1.540       .   A
C556       H560 1.140       .   S
C541       C542 1.540       .   A
C541       C546 1.540       .   A
C541       H547 1.140       .   S
C542       C543 1.540       .   A
C543       C544 1.540       .   A
C543       H548 1.140       .   S
C544       C545 1.540       .   A
C544       H549 1.140       .   S
C545       C546 1.540       .   A
C546       H550 1.140       .   S
C531       C532 1.540       .   A
C531       C536 1.540       .   A
C531       H537 1.140       .   S
C532       C533 1.540       .   A
C533       C534 1.540       .   A
C533       H538 1.140       .   S
C534       C535 1.540       .   A
C534       H539 1.140       .   S
C535       C536 1.540       .   A
C536       H540 1.140       .   S
C521       C522 1.540       .   A
C521       C526 1.540       .   A
C521       H527 1.140       .   S
C522       C523 1.540       .   A
C523       C524 1.540       .   A
C523       H528 1.140       .   S
C524       C525 1.540       .   A
C524       H529 1.140       .   S
C525       C526 1.540       .   A
C526       H530 1.140       .   S
C511       C512 1.540       .   A
C511       C516 1.540       .   A
C511       H517 1.140       .   S
C512       C513 1.540       .   A
C513       C514 1.540       .   A
C513       H518 1.140       .   S
C514       C515 1.540       .   A
C514       H519 1.140       .   S
C515       C516 1.540       .   A
C516       H520 1.140       .   S
C501       C502 1.540       .   A
C501       C506 1.540       .   A
C501       H507 1.140       .   S
C502       C503 1.540       .   A
C503       C504 1.540       .   A
C503       H508 1.140       .   S
C504       C505 1.540       .   A
C504       H509 1.140       .   S
C505       C506 1.540       .   A
C506       H510 1.140       .   S
C491       C492 1.540       .   A
C491       C496 1.540       .   A
C491       H497 1.140       .   S
C492       C493 1.540       .   A
C493       C494 1.540       .   A
C493       H498 1.140       .   S
C494       C495 1.540       .   A
C494       H499 1.140       .   S
C495       C496 1.540       .   A
C496       H500 1.140       .   S
C481       C482 1.540       .   A
C481       C486 1.540       .   A
C481       H487 1.140       .   S
C482       C483 1.540       .   A
C483       C484 1.540       .   A
C483       H488 1.140       .   S
C484       C485 1.540       .   A
C484       H489 1.140       .   S
C485       C486 1.540       .   A
C486       H490 1.140       .   S
C471       C472 1.540       .   A
C471       C476 1.540       .   A
C471       H477 1.140       .   S
C472       C473 1.540       .   A
C473       C474 1.540       .   A
C473       H478 1.140       .   S
C474       C475 1.540       .   A
C474       H479 1.140       .   S
C475       C476 1.540       .   A
C476       H480 1.140       .   S
C461       C462 1.540       .   A
C461       C466 1.540       .   A
C461       H467 1.140       .   S
C462       C463 1.540       .   A
C463       C464 1.540       .   A
C463       H468 1.140       .   S
C464       C465 1.540       .   A
C464       H469 1.140       .   S
C465       C466 1.540       .   A
C466       H470 1.140       .   S
C451       C452 1.540       .   A
C451       C456 1.540       .   A
C451       H457 1.140       .   S
C452       C453 1.540       .   A
C453       C454 1.540       .   A
C453       H458 1.140       .   S
C454       C455 1.540       .   A
C454       H459 1.140       .   S
C455       C456 1.540       .   A
C456       H460 1.140       .   S
C441       C442 1.540       .   A
C441       C446 1.540       .   A
C441       H447 1.140       .   S
C442       C443 1.540       .   A
C443       C444 1.540       .   A
C443       H448 1.140       .   S
C444       C445 1.540       .   A
C444       H449 1.140       .   S
C445       C446 1.540       .   A
C446       H450 1.140       .   S
C431       C432 1.540       .   A
C431       C436 1.540       .   A
C431       H437 1.140       .   S
C432       C433 1.540       .   A
C433       C434 1.540       .   A
C433       H438 1.140       .   S
C434       C435 1.540       .   A
C434       H439 1.140       .   S
C435       C436 1.540       .   A
C436       H440 1.140       .   S
C421       C422 1.540       .   A
C421       C426 1.540       .   A
C421       H427 1.140       .   S
C422       C423 1.540       .   A
C423       C424 1.540       .   A
C423       H428 1.140       .   S
C424       C425 1.540       .   A
C424       H429 1.140       .   S
C425       C426 1.540       .   A
C426       H430 1.140       .   S
C411       C412 1.540       .   A
C411       C416 1.540       .   A
C411       H417 1.140       .   S
C412       C413 1.540       .   A
C413       C414 1.540       .   A
C413       H418 1.140       .   S
C414       C415 1.540       .   A
C414       H419 1.140       .   S
C415       C416 1.540       .   A
C416       H420 1.140       .   S
C401       C402 1.540       .   A
C401       C406 1.540       .   A
C401       H407 1.140       .   S
C402       C403 1.540       .   A
C403       C404 1.540       .   A
C403       H408 1.140       .   S
C404       C405 1.540       .   A
C404       H409 1.140       .   S
C405       C406 1.540       .   A
C406       H410 1.140       .   S
C391       C392 1.540       .   A
C391       C396 1.540       .   A
C391       H397 1.140       .   S
C392       C393 1.540       .   A
C393       C394 1.540       .   A
C393       H398 1.140       .   S
C394       C395 1.540       .   A
C394       H399 1.140       .   S
C395       C396 1.540       .   A
C396       H400 1.140       .   S
C381       C382 1.540       .   A
C381       C386 1.540       .   A
C381       H387 1.140       .   S
C382       C383 1.540       .   A
C383       C384 1.540       .   A
C383       H388 1.140       .   S
C384       C385 1.540       .   A
C384       H389 1.140       .   S
C385       C386 1.540       .   A
C386       H390 1.140       .   S
C371       C372 1.540       .   A
C371       C376 1.540       .   A
C371       H377 1.140       .   S
C372       C373 1.540       .   A
C373       C374 1.540       .   A
C373       H378 1.140       .   S
C374       C375 1.540       .   A
C374       H379 1.140       .   S
C375       C376 1.540       .   A
C376       H380 1.140       .   S
C361       C362 1.540       .   A
C361       C366 1.540       .   A
C361       H367 1.140       .   S
C362       C363 1.540       .   A
C363       C364 1.540       .   A
C363       H368 1.140       .   S
C364       C365 1.540       .   A
C364       H369 1.140       .   S
C365       C366 1.540       .   A
C366       H370 1.140       .   S
C351       C352 1.540       .   A
C351       C356 1.540       .   A
C351       H357 1.140       .   S
C352       C353 1.540       .   A
C353       C354 1.540       .   A
C353       H358 1.140       .   S
C354       C355 1.540       .   A
C354       H359 1.140       .   S
C355       C356 1.540       .   A
C356       H360 1.140       .   S
C341       C342 1.540       .   A
C341       C346 1.540       .   A
C341       H347 1.140       .   S
C342       C343 1.540       .   A
C343       C344 1.540       .   A
C343       H348 1.140       .   S
C344       C345 1.540       .   A
C344       H349 1.140       .   S
C345       C346 1.540       .   A
C346       H350 1.140       .   S
C331       C332 1.540       .   A
C331       C336 1.540       .   A
C331       H337 1.140       .   S
C332       C333 1.540       .   A
C333       C334 1.540       .   A
C333       H338 1.140       .   S
C334       C335 1.540       .   A
C334       H339 1.140       .   S
C335       C336 1.540       .   A
C336       H340 1.140       .   S
C321       C322 1.540       .   A
C321       C326 1.540       .   A
C321       H327 1.140       .   S
C322       C323 1.540       .   A
C323       C324 1.540       .   A
C323       H328 1.140       .   S
C324       C325 1.540       .   A
C324       H329 1.140       .   S
C325       C326 1.540       .   A
C326       H330 1.140       .   S
C311       C312 1.540       .   A
C311       C316 1.540       .   A
C311       H317 1.140       .   S
C312       C313 1.540       .   A
C313       C314 1.540       .   A
C313       H318 1.140       .   S
C314       C315 1.540       .   A
C314       H319 1.140       .   S
C315       C316 1.540       .   A
C316       H320 1.140       .   S
C301       C302 1.540       .   A
C301       C306 1.540       .   A
C301       H307 1.140       .   S
C302       C303 1.540       .   A
C303       C304 1.540       .   A
C303       H308 1.140       .   S
C304       C305 1.540       .   A
C304       H309 1.140       .   S
C305       C306 1.540       .   A
C306       H310 1.140       .   S
C291       C292 1.540       .   A
C291       C296 1.540       .   A
C291       H297 1.140       .   S
C292       C293 1.540       .   A
C293       C294 1.540       .   A
C293       H298 1.140       .   S
C294       C295 1.540       .   A
C294       H299 1.140       .   S
C295       C296 1.540       .   A
C296       H300 1.140       .   S
C281       C282 1.540       .   A
C281       C286 1.540       .   A
C281       H287 1.140       .   S
C282       C283 1.540       .   A
C283       C284 1.540       .   A
C283       H288 1.140       .   S
C284       C285 1.540       .   A
C284       H289 1.140       .   S
C285       C286 1.540       .   A
C286       H290 1.140       .   S
C271       C272 1.540       .   A
C271       C276 1.540       .   A
C271       H277 1.140       .   S
C272       C273 1.540       .   A
C273       C274 1.540       .   A
C273       H278 1.140       .   S
C274       C275 1.540       .   A
C274       H279 1.140       .   S
C275       C276 1.540       .   A
C276       H280 1.140       .   S
C261       C262 1.540       .   A
C261       C266 1.540       .   A
C261       H267 1.140       .   S
C262       C263 1.540       .   A
C263       C264 1.540       .   A
C263       H268 1.140       .   S
C264       C265 1.540       .   A
C264       H269 1.140       .   S
C265       C266 1.540       .   A
C266       H270 1.140       .   S
C251       C252 1.540       .   A
C251       C256 1.540       .   A
C251       H257 1.140       .   S
C252       C253 1.540       .   A
C253       C254 1.540       .   A
C253       H258 1.140       .   S
C254       C255 1.540       .   A
C254       H259 1.140       .   S
C255       C256 1.540       .   A
C256       H260 1.140       .   S
C241       C242 1.540       .   A
C241       C246 1.540       .   A
C241       H247 1.140       .   S
C242       C243 1.540       .   A
C243       C244 1.540       .   A
C243       H248 1.140       .   S
C244       C245 1.540       .   A
C244       H249 1.140       .   S
C245       C246 1.540       .   A
C246       H250 1.140       .   S
