data_fjh_v1-3c_triazine_Ch_v2-4c_Cu_1_Ch_v3-4c_Cu_1_Ch_2-1B_4H_Ch
_audit_creation_date              2024-08-05
_audit_creation_method            'tobacco_3.0'
_symmetry_space_group_name_H-M    'P1'
_symmetry_Int_Tables_number       1
_symmetry_cell_setting            triclinic
loop_
_symmetry_equiv_pos_as_xyz
  x,y,z
_cell_length_a                    40.84922182275649
_cell_length_b                    40.84927902548176
_cell_length_c                    28.884989830900366
_cell_angle_alpha                 90.00000001909173
_cell_angle_beta                  90.000020133979
_cell_angle_gamma                 89.99997870417538
loop_
_atom_site_label
_atom_site_type_symbol
_atom_site_fract_x
_atom_site_fract_y
_atom_site_fract_z
_atom_site_charge
C1         C    0.5188496288    0.2311501086    0.2123006134          0.1978
N2         N    0.5188489664    0.2688479950    0.2123014236          0.1978
C3         C    0.4999993377    0.2876978864    0.2500008102          0.1978
N4         N    0.4811503712    0.2688498914    0.2876993866          0.1978
C5         C    0.4811510336    0.2311520050    0.2876985764          0.1978
N6         N    0.5000006623    0.2123021136    0.2499991898          0.1978
O7         O    0.4999964945    0.4525024158    0.2115072602         -1.5287
O8         O    0.4999960457    0.5474969388    0.2115084553         -1.5385
O9         O    0.5474946022    0.5000042128    0.2115094002         -1.4247
O10        O    0.4524944768    0.4999986048    0.2115063073         -1.5088
O11        O    0.4524942891    0.4999985162    0.2884933010         -1.5044
O12        O    0.5474909522    0.5000006635    0.2884962681         -1.4169
O13        O    0.4999958580    0.5474968503    0.2884954490          -1.542
O14        O    0.4999963068    0.4525023272    0.2884942540         -1.5298
Cu15      Cu    0.4999967036    0.5000022730    0.2044823359          1.0456
Cu16      Cu    0.4999956488    0.4999969931    0.2955203734          1.0433
C17        C    0.4999970559    0.4384957169    0.2500015954          0.1333
C18        C    0.4999952965    0.5615035491    0.2500011138          0.1246
C19        C    0.5614980359    0.5000002283    0.2500002416          0.0461
C20        C    0.4384943165    0.4999990378    0.2500024677          0.1088
C21        C    0.7122948114    0.5000028350    0.2500003528          0.1978
N22        N    0.7311445435    0.4811544702    0.2876978266          0.1978
C23        C    0.7688441601    0.4811544834    0.2876980249          0.1978
N24        N    0.7876940446    0.5000028613    0.2500007494          0.1978
C25        C    0.7688443124    0.5188512260    0.2123032756          0.1978
N26        N    0.7311446959    0.5188512128    0.2123030773          0.1978
C27        C    0.4811428256    0.7688489247    0.2122986275          0.1978
N28        N    0.4811433823    0.7311510383    0.2122995447          0.1978
C29        C    0.4999930022    0.7123011476    0.2499989595          0.1978
N30        N    0.5188420654    0.7311491433    0.2876974572          0.1978
C31        C    0.5188415087    0.7688470297    0.2876965401          0.1978
N32        N    0.4999918888    0.7876969203    0.2499971252          0.1978
C33        C    0.2876976398    0.4999986866    0.2500092794          0.1978
N34        N    0.2688478567    0.5188469751    0.2877067596          0.1978
C35        C    0.2311482401    0.5188467004    0.2877070799          0.1978
N36        N    0.2122984067    0.4999981371    0.2500099200          0.1978
C37        C    0.2311481899    0.4811498486    0.2123124397          0.1978
N38        N    0.2688478064    0.4811501234    0.2123121195          0.1978
C39        C    0.4811425562    0.7688472956    0.7877019425          0.1978
N40        N    0.4811432023    0.7311494093    0.7877010615          0.1978
C41        C    0.4999928224    0.7122995452    0.7500016390          0.1978
N42        N    0.5188417964    0.7311475675    0.7123030974          0.1978
C43        C    0.5188411502    0.7688454539    0.7123039784          0.1978
N44        N    0.4999915301    0.7876953180    0.7500034010          0.1978
O45        O    0.4525001860    0.4999978713    0.7884977931         -1.5287
O46        O    0.5474948420    0.5000002510    0.7884955242         -1.5385
O47        O    0.5000006352    0.5474973269    0.7884940731         -1.4247
O48        O    0.4999978559    0.4524973344    0.7884992523         -1.5088
O49        O    0.4999973130    0.4524962822    0.7115122586         -1.5044
O50        O    0.4999966318    0.5474928123    0.7115072053         -1.4169
O51        O    0.5474942992    0.4999991988    0.7115085305          -1.542
O52        O    0.4524996432    0.4999968191    0.7115107994         -1.5298
Cu53      Cu    0.5000001511    0.4999995737    0.7955221805          1.0456
Cu54      Cu    0.4999943341    0.4999974964    0.7044841431          1.0433
C55        C    0.4384932404    0.4999975834    0.7500036163          0.1333
C56        C    0.5615012448    0.4999994867    0.7500027073          0.1246
C57        C    0.4999960066    0.5615003087    0.7500029242          0.0461
C58        C    0.4999984786    0.4384967615    0.7500033994          0.1088
C59        C    0.2311473955    0.4811453475    0.7877087101          0.1978
N60        N    0.2688453347    0.4811459987    0.7877075499          0.1978
C61        C    0.2876950596    0.4999955242    0.7500079076          0.1978
N62        N    0.2688468453    0.5188443986    0.7123094256          0.1978
C63        C    0.2311489062    0.5188437475    0.7123105859          0.1978
N64        N    0.2122991813    0.4999942219    0.7500102282          0.1978
C65        C    0.5188518401    0.2311498195    0.7877038790          0.1978
N66        N    0.5188513026    0.2688477059    0.7877028912          0.1978
C67        C    0.5000016695    0.2876975708    0.7500034639          0.1978
N68        N    0.4811525738    0.2688495494    0.7123050243          0.1978
C69        C    0.4811531113    0.2311516631    0.7123060121          0.1978
N70        N    0.5000027445    0.2123017981    0.7500054394          0.1978
C71        C    0.7122976587    0.5000025392    0.7500055020          0.1978
N72        N    0.7311474443    0.4811541687    0.7123081061          0.1978
C73        C    0.7688470608    0.4811542567    0.7123079774          0.1978
N74        N    0.7876968919    0.5000027151    0.7500052446          0.1978
C75        C    0.7688471063    0.5188510855    0.7877026405          0.1978
N76        N    0.7311474897    0.5188509976    0.7877027692          0.1978
C77        C    0.0000012627    0.7876984337    0.7499995067          0.1978
N78        N    0.0188496704    0.7688485124    0.7123022838          0.1978
C79        C    0.0188496003    0.7311489486    0.7123024786          0.1978
N80        N    0.0000011225    0.7122993062    0.7499998962          0.1978
C81        C    0.9811527148    0.7311492275    0.7876971191          0.1978
N82        N    0.9811527849    0.7688487913    0.7876969243          0.1978
O83        O    0.9999979490    0.9525011276    0.7884965615         -1.5287
O84        O    0.9999955091    0.0474956506    0.7884953689         -1.5385
O85        O    0.9524983968    0.0000015155    0.7884933840         -1.4247
O86        O    0.0474985223    0.9999987258    0.7884985545         -1.5088
O87        O    0.0474995518    0.9999986382    0.7115115608         -1.5044
O88        O    0.9525028887    0.9999979673    0.7115065162         -1.4169
O89        O    0.9999965386    0.0474955630    0.7115083752          -1.542
O90        O    0.9999989785    0.9525010400    0.7115095678         -1.5298
Cu91      Cu    0.9999962186    0.0000009847    0.7955214871          1.0456
Cu92      Cu    0.9999982690    0.9999957060    0.7044834496          1.0433
C93        C    0.9999982344    0.9384944292    0.7500022260          0.1333
C94        C    0.9999962532    0.0615022614    0.7500027107          0.1246
C95        C    0.9384953841    0.9999971161    0.7500022364          0.0461
C96        C    0.0614991035    0.9999995746    0.7500027003          0.1088
C97        C    0.2688452219    0.0188531947    0.7123035512          0.1978
N98        N    0.2311472828    0.0188525135    0.7123044389          0.1978
C99        C    0.2122974366    0.0000028600    0.7500038318          0.1978
N100       N    0.2311455296    0.9811538876    0.7877023371          0.1978
C101       C    0.2688434687    0.9811545688    0.7877014494          0.1978
N102       N    0.2876933149    0.0000042224    0.7500020564          0.1978
C103       C    0.9811436157    0.2688478431    0.7123022270          0.1978
N104       N    0.9999925787    0.2876958073    0.7500008563          0.1978
C105       C    0.0188421371    0.2688458852    0.7877003013          0.1978
N106       N    0.0188427324    0.2311479988    0.7877011168          0.1978
C107       C    0.9999937694    0.2123000346    0.7500024874          0.1978
N108       N    0.9811442111    0.2311499568    0.7123030425          0.1978
C109       C    0.7311491342    0.9811439782    0.7123015551          0.1978
N110       N    0.7123010689    0.9999929618    0.7500000581          0.1978
C111       C    0.7311509428    0.0188424963    0.7876995612          0.1978
N112       N    0.7688488820    0.0188430471    0.7877005613          0.1978
C113       C    0.7876969472    0.9999940635    0.7500020583          0.1978
N114       N    0.7688470733    0.9811445291    0.7123025552          0.1978
C115       C    0.9999923225    0.2122995176    0.2500062555          0.1978
N116       N    0.0188408868    0.2311491914    0.2123089558          0.1978
C117       C    0.0188409794    0.2688487552    0.2123088462          0.1978
N118       N    0.9999925076    0.2876986451    0.2500060364          0.1978
C119       C    0.9811439433    0.2688489713    0.2877033361          0.1978
N120       N    0.9811438508    0.2311494075    0.2877034457          0.1978
O121       O    0.9999954284    0.0474961441    0.2884984558         -1.5287
O122       O    0.9999976895    0.9525016211    0.2884965224         -1.5385
O123       O    0.0474948912    0.9999956668    0.2884952830         -1.4247
O124       O    0.9524947657    0.9999986354    0.2884997033         -1.5088
O125       O    0.9524940019    0.9999990231    0.2115127096         -1.5044
O126       O    0.0474906650    0.9999995152    0.2115084151         -1.4169
O127       O    0.9999969257    0.9525020089    0.2115095287          -1.542
O128       O    0.9999946646    0.0474965319    0.2115114621         -1.5298
Cu129     Cu    0.9999970452    0.9999962597    0.2955230109          1.0456
Cu130     Cu    0.9999953089    0.0000018933    0.2044849735          1.0433
C131       C    0.9999953022    0.0615029926    0.2500042294          0.1333
C132       C    0.9999970519    0.9384951604    0.2500037550          0.1246
C133       C    0.0614980368    0.0000001900    0.2500042459          0.0461
C134       C    0.9384943173    0.9999979630    0.2500037386          0.1088
C135       C    0.7311474991    0.9811453486    0.2877047073          0.1978
N136       N    0.7688454382    0.9811459858    0.2877038696          0.1978
C137       C    0.7876953314    0.9999956056    0.2500044900          0.1978
N138       N    0.7688472855    0.0188445883    0.2123059480          0.1978
C139       C    0.7311493463    0.0188439511    0.2123067856          0.1978
N140       N    0.7122994531    0.9999943312    0.2500061653          0.1978
C141       C    0.0000000003    0.7876984153    0.2500044342          0.1978
N142       N    0.9811516400    0.7688487408    0.2123069123          0.1978
C143       C    0.9811516558    0.7311491771    0.2123066956          0.1978
N144       N    0.0000000319    0.7122992877    0.2500040008          0.1978
C145       C    0.0188483921    0.7311489622    0.2877015227          0.1978
N146       N    0.0188483763    0.7688485260    0.2877017394          0.1978
C147       C    0.2688449184    0.0188530927    0.2877068690          0.1978
N148       N    0.2311469793    0.0188524681    0.2877059380          0.1978
C149       C    0.2122971078    0.0000029073    0.2500064588          0.1978
N150       N    0.2311451754    0.9811539712    0.2123079107          0.1978
C151       C    0.2688431145    0.9811545958    0.2123088417          0.1978
N152       N    0.2876929860    0.0000041566    0.2500083209          0.1978
O153       O    0.0819994181    0.3704981458    0.9525081578         -1.5287
O154       O    0.1294981188    0.4179944514    0.0475016531         -1.5385
O155       O    0.1295015936    0.4179958749    0.9525110716         -1.4247
O156       O    0.0819959401    0.3704967273    0.0475056633         -1.5088
O157       O    0.1204886927    0.3320019179    0.0475066972         -1.5044
O158       O    0.1679908218    0.3794976671    0.9525121073         -1.4169
O159       O    0.1679908714    0.3794996420    0.0475026870          -1.542
O160       O    0.1204921707    0.3320033364    0.9525091918         -1.5298
Cu161     Cu    0.1022375774    0.3977606813    0.0000069822          1.0456
Cu162     Cu    0.1477527120    0.3522371066    0.0000038627          1.0433
C163       C    0.0942430567    0.3442473420    0.9385015827          0.1333
C164       C    0.1557472327    0.4057504458    0.0615092622          0.1246
C165       C    0.1557466187    0.4057492715    0.9385041099          0.0461
C166       C    0.0942436708    0.3442485164    0.0615067350          0.1088
O167       O    0.5820008706    0.1294984189    0.0474993722         -1.5287
O168       O    0.6294987741    0.0820006614    0.9525065434         -1.5385
O169       O    0.6295016254    0.0819992336    0.0474971249         -1.4247
O170       O    0.5819980161    0.1294998417    0.9525018667         -1.5088
O171       O    0.6204919201    0.1679934711    0.9525013796         -1.5044
O172       O    0.6679920051    0.1204962616    0.0474966361         -1.4169
O173       O    0.6679926781    0.1204942909    0.9525060564          -1.542
O174       O    0.6204947746    0.1679920483    0.0474988851         -1.5298
Cu175     Cu    0.6022385262    0.1022352651    0.0000008312          1.0456
Cu176     Cu    0.6477550224    0.1477574446    0.0000045974          1.0433
C177       C    0.5942452025    0.1557488467    0.0615061225          0.1333
C178       C    0.6557483462    0.0942438630    0.9384993060          0.1246
C179       C    0.6557469249    0.0942450320    0.0615044583          0.0461
C180       C    0.5942466238    0.1557476777    0.9385009703          0.1088
O181       O    0.8704968400    0.5820024367    0.0474995839         -1.5287
O182       O    0.9179947541    0.6294998768    0.9525064839         -1.5385
O183       O    0.9179960194    0.6295031620    0.0474970653         -1.4247
O184       O    0.8704955797    0.5819991483    0.9525020785         -1.5088
O185       O    0.8320018377    0.6204929684    0.9525010698         -1.5044
O186       O    0.8794988789    0.6679934578    0.0474960550         -1.4169
O187       O    0.8795010121    0.6679936969    0.9525054752          -1.542
O188       O    0.8320030980    0.6204962568    0.0474985753         -1.5298
Cu189     Cu    0.8977600823    0.6022398683    0.0000009549          1.0456
Cu190     Cu    0.8522377697    0.6477562653    0.0000041043          1.0433
C191       C    0.8442463327    0.5942467949    0.0615061135          0.1333
C192       C    0.9057515193    0.6557493387    0.9384989457          0.1246
C193       C    0.9057501400    0.6557484792    0.0615040979          0.0461
C194       C    0.8442477121    0.5942476544    0.9385009612          0.1088
O195       O    0.3794971463    0.8320058923    0.9525055672         -1.5287
O196       O    0.3320013232    0.8795049868    0.0474991391         -1.5385
O197       O    0.3319995485    0.8795082344    0.9525085577         -1.4247
O198       O    0.3794989160    0.8320026415    0.0475030726         -1.5088
O199       O    0.4179939396    0.8704951512    0.0475036379         -1.5044
O200       O    0.3704979705    0.9179972197    0.9525091246         -1.4169
O201       O    0.3704963468    0.9179974965    0.0474997044          -1.542
O202       O    0.4179921699    0.8704984020    0.9525061324         -1.5298
Cu203     Cu    0.3522348325    0.8522442707    0.0000044727          1.0456
Cu204     Cu    0.3977586605    0.8977591181    0.0000007989          1.0433
C205       C    0.4057479860    0.8442493514    0.9384987464          0.1333
C206       C    0.3442455070    0.9057540374    0.0615065252          0.1246
C207       C    0.3442462266    0.9057531291    0.9385013729          0.0461
C208       C    0.4057472664    0.8442502597    0.0615038986          0.1088
O209       O    0.1204946537    0.6679909338    0.4525070744         -1.5287
O210       O    0.1679906204    0.6204920940    0.5475008046         -1.5385
O211       O    0.1679925321    0.6204888722    0.4525102232         -1.4247
O212       O    0.1204927470    0.6679941588    0.5475045799         -1.5088
O213       O    0.0819979508    0.6295014216    0.5475049749         -1.5044
O214       O    0.1294943374    0.5819996595    0.4525106199         -1.4169
O215       O    0.1294958242    0.5819993569    0.5475011997          -1.542
O216       O    0.0819998575    0.6294981966    0.4525074695         -1.5298
Cu217     Cu    0.1477570185    0.6477527035    0.5000060746          1.0456
Cu218     Cu    0.1022334594    0.6022375872    0.5000021995          1.0433
C219       C    0.0942439064    0.6557473234    0.4385001452          0.1333
C220       C    0.1557465715    0.5942429673    0.5615081289          0.1246
C221       C    0.1557460291    0.5942439090    0.4385029767          0.0461
C222       C    0.0942444488    0.6557463817    0.5615052974          0.1088
O223       O    0.4179944967    0.1294993323    0.4525067014         -1.5287
O224       O    0.3704954962    0.0820034502    0.5475002730         -1.5385
O225       O    0.3704920409    0.0820018835    0.4525096916         -1.4247
O226       O    0.4179979551    0.1295008940    0.5475042068         -1.5088
O227       O    0.3795054297    0.1679959305    0.5475050707         -1.5044
O228       O    0.3320030399    0.1205003185    0.4525105571         -1.4169
O229       O    0.3320029707    0.1204984867    0.5475011368          -1.542
O230       O    0.3795019712    0.1679943688    0.4525075653         -1.5298
Cu231     Cu    0.3977561667    0.1022369879    0.5000055795          1.0456
Cu232     Cu    0.3522413007    0.1477608312    0.5000022588          1.0433
C233       C    0.4057510158    0.1557501872    0.4385000299          0.1333
C234       C    0.3442464516    0.0942476318    0.5615078083          0.1246
C235       C    0.3442470909    0.0942486207    0.4385026560          0.0461
C236       C    0.4057503764    0.1557491983    0.5615051822          0.1088
O237       O    0.8704968411    0.4179976731    0.4525064475         -1.5287
O238       O    0.9179932073    0.3704985655    0.5474995104         -1.5385
O239       O    0.9179945254    0.3704954175    0.4525089290         -1.4247
O240       O    0.8704955280    0.4180008243    0.5475039530         -1.5088
O241       O    0.8320005745    0.3795082445    0.5475047693         -1.5044
O242       O    0.8794961734    0.3320063621    0.4525097470         -1.4169
O243       O    0.8794982538    0.3320059857    0.5475003268          -1.542
O244       O    0.8320018876    0.3795050933    0.4525072638         -1.5298
Cu245     Cu    0.8977594200    0.3977592946    0.5000050756          1.0456
Cu246     Cu    0.8522356748    0.3522443642    0.5000016987          1.0433
C247       C    0.8442459563    0.4057541809    0.4384998273          0.1333
C248       C    0.9057491386    0.3442494779    0.5615069470          0.1246
C249       C    0.9057478277    0.3442505151    0.4385017947          0.0461
C250       C    0.8442472671    0.4057531437    0.5615049795          0.1088
O251       O    0.5819986035    0.8704989132    0.4525049184         -1.5287
O252       O    0.6294980018    0.9179944486    0.5474984861         -1.5385
O253       O    0.6295010874    0.9179963339    0.4525079047         -1.4247
O254       O    0.5819955148    0.8704970327    0.5475024238         -1.5088
O255       O    0.6204880175    0.8320019735    0.5475027680         -1.5044
O256       O    0.6679900656    0.8794978763    0.4525082505         -1.4169
O257       O    0.6679905045    0.8794993893    0.5474988303          -1.542
O258       O    0.6204911063    0.8320038539    0.4525052625         -1.5298
Cu259     Cu    0.6022371345    0.8977610863    0.5000038419          1.0456
Cu260     Cu    0.6477519736    0.8522372162    0.4999999067          1.0433
C261       C    0.5942420144    0.8442480980    0.4384979876          0.1333
C262       C    0.6557470937    0.9057502045    0.5615057611          0.1246
C263       C    0.6557459756    0.9057496282    0.4385006088          0.0461
C264       C    0.5942431325    0.8442486743    0.5615031399          0.1088
C735       C    0.2968593221    0.0738705263    0.3177739431          0.1978
C736       C    0.2876951054    0.0377016185    0.3254051034          0.1978
C737       C    0.2973817880    0.0203819490    0.3707359227          0.1978
C738       C    0.3162326873    0.0392311871    0.4084355819          0.1978
C739       C    0.3253969040    0.0754000949    0.4008044217          0.1978
C740       C    0.3157102214    0.0927197645    0.3554736023          0.1978
H741       H    0.2896886609    0.0866915804    0.2842173626          0.1978
H742       H    0.2905987739    0.9936093039    0.3763859150          0.1978
H743       H    0.3234033485    0.0264101330    0.4419921624          0.1978
H744       H    0.3224932355    0.1194924096    0.3498236100          0.1978
C725       C    0.2709213016    0.9541737920    0.1282642256          0.1978
C726       C    0.2876940939    0.9623040750    0.1746075001          0.1978
C727       C    0.3233171030    0.9515845995    0.1832509579          0.1978
C728       C    0.3421673199    0.9327348412    0.1455511413          0.1978
C729       C    0.3253945276    0.9246045582    0.0992078668          0.1978
C730       C    0.2897715185    0.9353240337    0.0905644090          0.1978
H731       H    0.2445510221    0.9621089882    0.1218658218          0.1978
H732       H    0.3357333916    0.9576022668    0.2175543586          0.1978
H733       H    0.3685375994    0.9247996450    0.1519495451          0.1978
H734       H    0.2773552299    0.9293063664    0.0562610083          0.1978
C715       C    0.0742177710    0.7195233316    0.3338074857          0.1978
C716       C    0.0376970540    0.7122987692    0.3254007449          0.1978
C717       C    0.0200254323    0.6862235804    0.3546940931          0.1978
C718       C    0.0388745276    0.6673729540    0.3923941821          0.1978
C719       C    0.0753952445    0.6745975164    0.4008009229          0.1978
C720       C    0.0930668663    0.7006727052    0.3715075747          0.1978
H721       H    0.0872993611    0.7388257441    0.3121227994          0.1978
H722       H    0.9929923681    0.6808751598    0.3484723805          0.1978
H723       H    0.0257929375    0.6480705415    0.4140788685          0.1978
H724       H    0.1200999304    0.7060211258    0.3777292873          0.1978
C705       C    0.9380297718    0.6563003499    0.1417754752          0.1978
C706       C    0.9246008704    0.6745990052    0.0992054504          0.1978
C707       C    0.9300219965    0.7117474834    0.0943353720          0.1978
C708       C    0.9488720239    0.7305973063    0.1320353183          0.1978
C709       C    0.9623009253    0.7122986510    0.1746053431          0.1978
C710       C    0.9568797993    0.6751501728    0.1794754216          0.1978
H711       H    0.9340167305    0.6288008270    0.1453805982          0.1978
H712       H    0.9200821429    0.7252932587    0.0628250368          0.1978
H713       H    0.9528850652    0.7580968292    0.1284301953          0.1978
H714       H    0.9668196528    0.6616043976    0.2109857567          0.1978
C695       C    0.6758121351    0.9541623236    0.3184829608          0.1978
C696       C    0.7122974911    0.9622967914    0.3254029369          0.1978
C697       C    0.7299320934    0.9515819562    0.3700226341          0.1978
C698       C    0.7110813396    0.9327326532    0.4077223552          0.1978
C699       C    0.6745959835    0.9245981854    0.4008023792          0.1978
C700       C    0.6569613813    0.9353130206    0.3561826820          0.1978
H701       H    0.6627579490    0.9620940847    0.2854527954          0.1978
H702       H    0.7569389823    0.9576027212    0.3751461878          0.1978
H703       H    0.7241355257    0.9248008921    0.4407525207          0.1978
H704       H    0.6299544923    0.9292922556    0.3510591283          0.1978
C685       C    0.7122987892    0.0753946394    0.1746037320          0.1978
C686       C    0.7122983293    0.0376946330    0.1746053804          0.1978
C687       C    0.6934476757    0.0188444851    0.1369072704          0.1978
C688       C    0.6745974821    0.0376943437    0.0992075119          0.1978
C689       C    0.6745979420    0.0753943501    0.0992058635          0.1978
C690       C    0.6934485955    0.0942444979    0.1369039735          0.1978
H691       H    0.7262531691    0.0893486449    0.2025101251          0.1978
H692       H    0.6934467388    0.9909384778    0.1369072976          0.1978
H693       H    0.6606431021    0.0237403381    0.0713011188          0.1978
H694       H    0.6934495325    0.1221505052    0.1369039463          0.1978
C675       C    0.1180486585    0.9690277355    0.2354041352          0.1978
C676       C    0.0991975131    0.0000008693    0.2500047991          0.1978
C677       C    0.1180464269    0.0309746824    0.2646060163          0.1978
C678       C    0.1557464861    0.0309753618    0.2646065695          0.1978
C679       C    0.1745976315    0.0000022280    0.2500059056          0.1978
C680       C    0.1557487176    0.9690284149    0.2354046884          0.1978
H681       H    0.1040955664    0.9460990687    0.2245954419          0.1978
H682       H    0.1040934726    0.0539018662    0.2754138379          0.1978
H683       H    0.1696995781    0.0539040286    0.2754152628          0.1978
H684       H    0.1697016719    0.9461012311    0.2245968668          0.1978
C665       C    0.0326391097    0.8819469722    0.2489818789          0.1978
C666       C    0.9999977890    0.9007967942    0.2500039248          0.1978
C667       C    0.9673572053    0.8819466099    0.2510261405          0.1978
C668       C    0.9673579424    0.8442466035    0.2510263103          0.1978
C669       C    0.9999992632    0.8253967814    0.2500042644          0.1978
C670       C    0.0326398468    0.8442469658    0.2489820487          0.1978
H671       H    0.0568016197    0.8959010047    0.2482251738          0.1978
H672       H    0.9431951827    0.8958985847    0.2517826875          0.1978
H673       H    0.9431954325    0.8302925710    0.2517830154          0.1978
H674       H    0.0568018694    0.8302949910    0.2482255016          0.1978
C655       C    0.8819445478    0.9993754379    0.2961678784          0.1978
C656       C    0.9007948836    0.9999973737    0.2500039264          0.1978
C657       C    0.8819451602    0.0006187200    0.2038401623          0.1978
C658       C    0.8442451010    0.0006181307    0.2038403502          0.1978
C659       C    0.8253947652    0.9999961950    0.2500043021          0.1978
C660       C    0.8442444886    0.9993748486    0.2961680663          0.1978
H661       H    0.8958982392    0.9989154802    0.3303410544          0.1978
H662       H    0.8958975152    0.0010790943    0.1696683082          0.1978
H663       H    0.8302914096    0.0010780884    0.1696671741          0.1978
H664       H    0.8302921336    0.9989144743    0.3303399204          0.1978
C645       C    0.9262119023    0.2971241659    0.3175966740          0.1978
C646       C    0.9622951050    0.2876991666    0.3254025695          0.1978
C647       C    0.9795290881    0.2971247440    0.3709084609          0.1978
C648       C    0.9606798687    0.3159753205    0.4086084568          0.1978
C649       C    0.9245966660    0.3254003198    0.4008025613          0.1978
C650       C    0.9073626828    0.3159747425    0.3552966699          0.1978
H651       H    0.9134542784    0.2901467905    0.2839104947          0.1978
H652       H    0.0062382919    0.2901486913    0.3766877972          0.1978
H653       H    0.9734374926    0.3229526960    0.4422946362          0.1978
H654       H    0.8806534791    0.3229507951    0.3495173337          0.1978
C635       C    0.0204594772    0.2971248614    0.1290999981          0.1978
C636       C    0.0376919930    0.2876990362    0.1746076369          0.1978
C637       C    0.0737748409    0.2971228106    0.1824154293          0.1978
C638       C    0.0926251730    0.3159724102    0.1447155830          0.1978
C639       C    0.0753926571    0.3253982353    0.0992079443          0.1978
C640       C    0.0393098093    0.3159744610    0.0914001518          0.1978
H641       H    0.9937487976    0.2901488206    0.1233202037          0.1978
H642       H    0.0865314297    0.2901461466    0.2161002689          0.1978
H643       H    0.1193358526    0.3229484509    0.1504953774          0.1978
H644       H    0.0265532204    0.3229511250    0.0577153123          0.1978
C625       C    0.0143599140    0.1557508157    0.2914674133          0.1978
C626       C    0.9999930674    0.1746012615    0.2500057490          0.1978
C627       C    0.9856269659    0.1557517009    0.2085435781          0.1978
C628       C    0.9856277108    0.1180516945    0.2085430716          0.1978
C629       C    0.9999945573    0.0992012487    0.2500047359          0.1978
C630       C    0.0143606589    0.1180508093    0.2914669068          0.1978
H631       H    0.0249945606    0.1697043865    0.3221601892          0.1978
H632       H    0.9749922225    0.1697041374    0.1778524894 0.17020000000000002
H633       H    0.9749930642    0.1040981237    0.1778502957          0.1978
H634       H    0.0249954023    0.1040983728    0.3221579956          0.1978
C615       C    0.7290954566    0.9541014525    0.6283000196          0.1978
C616       C    0.7122990977    0.9622960084    0.6746035539          0.1978
C617       C    0.6766517550    0.9516416472    0.6832071924          0.1978
C618       C    0.6578007712    0.9327927302    0.6455072966          0.1978
C619       C    0.6745971301    0.9245981743    0.5992037623          0.1978
C620       C    0.7102444728    0.9352525355    0.5906001238          0.1978
H621       H    0.7554837493    0.9619884472    0.6219310924          0.1978
H622       H    0.6642180217    0.9577068912    0.7174811761          0.1978
H623       H    0.6314124785    0.9249057355    0.6518762237          0.1978
H624       H    0.7226782062    0.9291872915    0.5563261400          0.1978
C605       C    0.6758640127    0.0302330042    0.8341245253          0.1978
C606       C    0.7123000099    0.0376931217    0.8254000650          0.1978
C607       C    0.7298856417    0.0640032971    0.8543749733          0.1978
C608       C    0.7110352763    0.0828533551    0.8920743420          0.1978
C609       C    0.6745992791    0.0753932376    0.9007988023          0.1978
C610       C    0.6570136473    0.0490830621    0.8718238940          0.1978
H611       H    0.6628460775    0.0107566406    0.8126755672          0.1978
H612       H    0.7568559938    0.0695260822    0.8479180757          0.1978
H613       H    0.7240532115    0.1023297187    0.9135233001          0.1978
H614       H    0.6300432952    0.0435602770    0.8782807915          0.1978
C595       C    0.9283719879    0.3022671695    0.6853952806          0.1978
C596       C    0.9622954871    0.2876977611    0.6746043883          0.1978
C597       C    0.9773698764    0.2919792522    0.6261136947          0.1978
C598       C    0.9585207664    0.3108301516    0.5884138934          0.1978
C599       C    0.9245972672    0.3253995599    0.5992047857          0.1978
C600       C    0.9095228779    0.3211180689    0.6476954793          0.1978
H601       H    0.9172130244    0.2990977540    0.7212909888          0.1978
H602       H    0.0024804070    0.2811951634    0.6181247800          0.1978
H603       H    0.9696797299    0.3139995671    0.5525181851          0.1978
H604       H    0.8844123473    0.3319021576    0.6556843940          0.1978
C585       C    0.0734404761    0.2786140016    0.8364369481          0.1978
C586       C    0.0376926465    0.2876965288    0.8254011805          0.1978
C587       C    0.0207947673    0.3156291408    0.8520651744          0.1978
C588       C    0.0396447177    0.3344792256    0.8897649358          0.1978
C589       C    0.0753925474    0.3253966984    0.9008007034          0.1978
C590       C    0.0922904266    0.2974640864    0.8741367096          0.1978
H591       H    0.0859492958    0.2579366135    0.8166986669          0.1978
H592       H    0.9943338160    0.3223528792    0.8438973823          0.1978
H593       H    0.0271358981    0.3551566137    0.9095032170          0.1978
H594       H    0.1187513778    0.2907403480    0.8823045017          0.1978
C575       C    0.3242453294    0.0887077133    0.6490623837          0.1978
C576       C    0.3253966256    0.0753995039    0.5992057813          0.1978
C577       C    0.3076971328    0.0432422039    0.5870490773          0.1978
C578       C    0.2888463440    0.0243931133    0.6247489758          0.1978
C579       C    0.2876950479    0.0377013226    0.6746055782          0.1978
C580       C    0.3053945406    0.0698586226    0.6867622822          0.1978
H581       H    0.3373475513    0.1125124678    0.6580615023          0.1978
H582       H    0.3085487580    0.0333904969    0.5501450126          0.1978
H583       H    0.2757441222    0.0005883587    0.6157498572          0.1978
H584       H    0.3045429155    0.0797103296    0.7236663469          0.1978
C565       C    0.3253933001    0.9620555650    0.8251551297          0.1978
C566       C    0.2876944631    0.9623039040    0.8254020401          0.1978
C567       C    0.2688460107    0.9437021880    0.8633483215          0.1978
C568       C    0.2876963953    0.9248521330    0.9010476926          0.1978
C569       C    0.3253952322    0.9246037939    0.9008007823          0.1978
C570       C    0.3442436847    0.9432055099    0.8628545008          0.1978
H571       H    0.3393460506    0.9758256664    0.7970650252          0.1978
H572       H    0.2409408690    0.9438854190    0.8635322846          0.1978
H573       H    0.2737436448    0.9110820315    0.9291377971          0.1978
H574       H    0.3721488263    0.9430222789    0.8626705377          0.1978
C555       C    0.8819455843    0.0088999634    0.7055801642          0.1978
C556       C    0.9007962249    0.9999963529    0.7500021918          0.1978
C557       C    0.8819468062    0.9910919793    0.7944241750          0.1978
C558       C    0.8442467470    0.9910912162    0.7944241305          0.1978
C559       C    0.8253961065    0.9999948266    0.7500021028          0.1978
C560       C    0.8442455251    0.0088992002    0.7055801196          0.1978
H561       H    0.8958990500    0.0154915127    0.6726963584          0.1978
H562       H    0.8958993869    0.9845012767    0.8273066078          0.1978
H563       H    0.8302932813    0.9844996669    0.8273079362          0.1978
H564       H    0.8302929444    0.0154899028    0.6726976868          0.1978
C545       C    0.9673587246    0.1180510611    0.7487324374          0.1978
C546       C    0.9999956322    0.0992011416    0.7500026549          0.1978
C547       C    0.0326319190    0.1180512285    0.7512728166          0.1978
C548       C    0.0326312980    0.1557512349    0.7512727607          0.1978
C549       C    0.9999943904    0.1746011544    0.7500025432          0.1978
C550       C    0.9673581036    0.1557510675    0.7487323816          0.1978
H551       H    0.9431993954    0.1040971006    0.7477921879          0.1978
H552       H    0.0567906749    0.1040991817    0.7522130672          0.1978
H553       H    0.0567906272    0.1697051954    0.7522130103          0.1978
H554       H    0.9431993477    0.1697031143    0.7477921309          0.1978
C535       C    0.1180494210    0.9676014417    0.7443053849          0.1978
C536       C    0.0991982109    0.0000003959    0.7500029832          0.1978
C537       C    0.1180470600    0.0324001715    0.7557008643          0.1978
C538       C    0.1557471192    0.0324009928    0.7557011472          0.1978
C539       C    0.1745983293    0.0000020386    0.7500035490          0.1978
C540       C    0.1557494802    0.9676022631    0.7443056678          0.1978
H541       H    0.1040963768    0.9436171923    0.7400874729          0.1978
H542       H    0.1040940578    0.0563827876    0.7599183867          0.1978
H543       H    0.1697001633    0.0563852423    0.7599190593          0.1978
H544       H    0.1697024824    0.9436196470    0.7400881455          0.1978
C525       C    0.0453094973    0.6756660719    0.6811481480          0.1978
C526       C    0.0376980267    0.7122985926    0.6746037547          0.1978
C527       C    0.0489355540    0.7300801859    0.6303594946          0.1978
C528       C    0.0677845518    0.7112292584    0.5926596279          0.1978
C529       C    0.0753960223    0.6745967377    0.5992040213          0.1978
C530       C    0.0641584951    0.6568151445    0.6434482814          0.1978
H531       H    0.0369908083    0.6625030743    0.7139003925          0.1978
H532       H    0.0433019262    0.7571960102    0.6255139577          0.1978
H533       H    0.0761032408    0.7243922560    0.5599073835          0.1978
H534       H    0.0697921229    0.6296993201    0.6482938183          0.1978
C515       C    0.9639389969    0.6746535853    0.8270908308          0.1978
C516       C    0.9623021785    0.7122990178    0.8253980506          0.1978
C517       C    0.9418152987    0.7310947156    0.8614052522          0.1978
C518       C    0.9229652372    0.7122449809    0.8991052339          0.1978
C519       C    0.9246020557    0.6745995483    0.9007980141          0.1978
C520       C    0.9450889355    0.6558038505    0.8647908126          0.1978
H521       H    0.9791046093    0.6607398869    0.8004361491          0.1978
H522       H    0.9406030831    0.7589603259    0.8601534018          0.1978
H523       H    0.9077996249    0.7261586792    0.9257599156          0.1978
H524       H    0.9463011510    0.6279382403    0.8660426630          0.1978
C505       C    0.0041205227    0.8442473651    0.7041974732          0.1978
C506       C    0.0000005057    0.8253964251    0.7500001865          0.1978
C507       C    0.9958797315    0.8442454915    0.7958035796          0.1978
C508       C    0.9958789744    0.8819454979    0.7958042594          0.1978
C509       C    0.9999989915    0.9007964379    0.7500015462          0.1978
C510       C    0.0041197657    0.8819473715    0.7041981531          0.1978
H511       H    0.0071709660    0.8302941601    0.6702910653          0.1978
H512       H    0.9928299791    0.8302926892    0.8297080347          0.1978
H513       H    0.9928285312    0.8958987029    0.8297106673          0.1978
H514       H    0.0071695181    0.8959001738    0.6702936979          0.1978
C495       C    0.8198560602    0.5553976966    0.8132461172          0.1978
C496       C    0.7876970271    0.5376999970    0.8254017593          0.1978
C497       C    0.7743883760    0.5388516704    0.8752574430          0.1978
C498       C    0.7932387582    0.5577010433    0.9129574846          0.1978
C499       C    0.8253977914    0.5753987429    0.9008018425          0.1978
C500       C    0.8387064424    0.5742470695    0.8509461588          0.1978
H501       H    0.8297079188    0.5545451592    0.7763399617          0.1978
H502       H    0.7505839528    0.5257519325    0.8842565838          0.1978
H503       H    0.7833868997    0.5585535808    0.9498636400          0.1978
H504       H    0.8625108657    0.5873468074    0.8419470179          0.1978
C485       C    0.7699148748    0.4365543224    0.6448731715          0.1978
C486       C    0.7876974342    0.4623036566    0.6746065843          0.1978
C487       C    0.8243297234    0.4692030344    0.6666398913          0.1978
C488       C    0.8431794532    0.4503530779    0.6289397855          0.1978
C489       C    0.8253968937    0.4246037437    0.5992063727          0.1978
C490       C    0.7887646046    0.4177043660    0.6071730657          0.1978
H491       H    0.7427974659    0.4314469908    0.6507705936          0.1978
H492       H    0.8374934700    0.4882628184    0.6886482056          0.1978
H493       H    0.8702968620    0.4554604095    0.6230423634          0.1978
H494       H    0.7756008580    0.3986445820    0.5851647513          0.1978
C475       C    0.5751377127    0.2085867783    0.8219550084          0.1978
C476       C    0.5377002094    0.2122996107    0.8254024986          0.1978
C477       C    0.5191117287    0.1971615811    0.8665499148          0.1978
C478       C    0.5379607512    0.1783107190    0.9042498408          0.1978
C479       C    0.5753982545    0.1745978866    0.9008023507          0.1978
C480       C    0.5939867352    0.1897359162    0.8596549345          0.1978
H481       H    0.5888980167    0.2197928522    0.7914952328          0.1978
H482       H    0.4914000335    0.1999093274    0.8691030369          0.1978
H483       H    0.5242004472    0.1671046451    0.9347096165          0.1978
H484       H    0.6216984304    0.1869881699    0.8571018123          0.1978
C465       C    0.4622589549    0.1731519314    0.6006976071          0.1978
C466       C    0.4246014878    0.1746002422    0.5992062450          0.1978
C467       C    0.4057942768    0.1948987415    0.6354142350          0.1978
C468       C    0.4246445329    0.2137489300    0.6731135872          0.1978
C469       C    0.4623019999    0.2123006192    0.6746049493          0.1978
C470       C    0.4811092109    0.1920021199    0.6383969593          0.1978
H471       H    0.4761811760    0.1581257696    0.5738942898          0.1978
H472       H    0.3779197584    0.1959714183    0.6343114800          0.1978
H473       H    0.4107223117    0.2287750918    0.6999169045          0.1978
H474       H    0.5089837294    0.1909294431    0.6394997143          0.1978
C455       C    0.1986849408    0.4279035247    0.8151023069          0.1978
C456       C    0.2122976300    0.4622967572    0.8254067027          0.1978
C457       C    0.2070596964    0.4778405420    0.8734108059          0.1978
C458       C    0.1882090735    0.4589910943    0.9111105132          0.1978
C459       C    0.1745963842    0.4245978618    0.9008061174          0.1978
C460       C    0.1798343179    0.4090540771    0.8528020142          0.1978
H461       H    0.2025623722    0.4163970867    0.7795668019          0.1978
H462       H    0.2171355948    0.5032987823    0.8810396022          0.1978
H463       H    0.1843316421    0.4704975323    0.9466460181          0.1978
H464       H    0.1697584194    0.3835958367    0.8451732178          0.1978
C445       C    0.2256059962    0.5388455292    0.6247526605          0.1978
C446       C    0.2122980245    0.5376938504    0.6746093756          0.1978
C447       C    0.1801397671    0.5553916786    0.6867660725          0.1978
C448       C    0.1612894815    0.5742411855    0.6490660543          0.1978
C449       C    0.1745974532    0.5753928643    0.5992093393          0.1978
C450       C    0.2067557105    0.5576950362    0.5870526424          0.1978
H451       H    0.2494114594    0.5257445396    0.6157535473          0.1978
H452       H    0.1702882360    0.5545397701    0.7236702205          0.1978
H453       H    0.1374840183    0.5873421751    0.6580651676          0.1978
H454       H    0.2166072416    0.5585469446    0.5501484944          0.1978
C435       C    0.6180503949    0.4941602172    0.7045762894          0.1978
C436       C    0.5991993926    0.5000002498    0.7500034060          0.1978
C437       C    0.6180484495    0.5058410455    0.7954312213          0.1978
C438       C    0.6557485087    0.5058418087    0.7954319200          0.1978
C439       C    0.6745995110    0.5000017761    0.7500048034          0.1978
C440       C    0.6557504541    0.4941609804    0.7045769881          0.1978
H441       H    0.6040971969    0.4898365113    0.6709479066          0.1978
H442       H    0.6040956011    0.5101640017    0.8290576492          0.1978
H443       H    0.6697017066    0.5101655146    0.8290603028          0.1978
H444       H    0.6697033024    0.4898380242    0.6709505601          0.1978
C425       C    0.4679269681    0.3819460582    0.7413668536          0.1978
C426       C    0.4999992763    0.4007971726    0.7500034155          0.1978
C427       C    0.5320723822    0.3819482806    0.7586399936          0.1978
C428       C    0.5320731799    0.3442482742    0.7586400097          0.1978
C429       C    0.5000008718    0.3253971598    0.7500034478          0.1978
C430       C    0.4679277658    0.3442460518    0.7413668697          0.1978
H431       H    0.4441845391    0.3958991340    0.7349735425          0.1978
H432       H    0.5558132058    0.3959012119    0.7650330194          0.1978
H433       H    0.5558156090    0.3302951983    0.7650333208          0.1978
H434       H    0.4441869423    0.3302931204    0.7349738439          0.1978
C415       C    0.3819432790    0.5326457189    0.7500052255          0.1978
C416       C    0.4007942092    0.4999970686    0.7500046891          0.1978
C417       C    0.3819450802    0.4673479035    0.7500052255          0.1978
C418       C    0.3442450210    0.4673473887    0.7500062983          0.1978
C419       C    0.3253940908    0.4999960390    0.7500068348          0.1978
C420       C    0.3442432198    0.5326452041    0.7500062984          0.1978
H421       H    0.3958965303    0.5568145814    0.7500048284          0.1978
H422       H    0.3958978752    0.4431804553    0.7500048284          0.1978
H423       H    0.3302917696    0.4431785262    0.7500066954          0.1978
H424       H    0.3302904248    0.5568126523    0.7500066954          0.1978
C405       C    0.4570535979    0.7721538391    0.8734047359          0.1978
C406       C    0.4622942722    0.7876974509    0.8254004263          0.1978
C407       C    0.4486859454    0.8220919353    0.8150960348          0.1978
C408       C    0.4298369443    0.8409428079    0.8527959531          0.1978
C409       C    0.4245962700    0.8253991961    0.9008002627          0.1978
C410       C    0.4382045968    0.7910047117    0.9111046541          0.1978
H411       H    0.4671272944    0.7466929871    0.8810326620          0.1978
H412       H    0.4525646432    0.8335983500    0.7795630894          0.1978
H413       H    0.4197632478    0.8664036600    0.8451680269          0.1978
H414       H    0.4343258990    0.7794982970    0.9466375995          0.1978
C395       C    0.5208633371    0.8157704305    0.6481474319          0.1978
C396       C    0.5376920789    0.7876966921    0.6746029026          0.1978
C397       C    0.5733708831    0.7784733257    0.6633590298          0.1978
C398       C    0.5922209456    0.7973236977    0.6256596864          0.1978
C399       C    0.5753922038    0.8253974361    0.5992042156          0.1978
C400       C    0.5397133996    0.8346208025    0.6104480884          0.1978
H401       H    0.4944517547    0.8225981173    0.6564708182          0.1978
H402       H    0.5858285871    0.7576929524    0.6829409194          0.1978
H403       H    0.6186325280    0.7904960109    0.6173363000          0.1978
H404       H    0.5272556956    0.8554011757    0.5908661989          0.1978
C385       C    0.4965324560    0.6557496114    0.7959141027          0.1978
C386       C    0.4999936185    0.6745999333    0.7500019603          0.1978
C387       C    0.5034555770    0.6557502489    0.7040901391          0.1978
C388       C    0.5034563730    0.6180502425    0.7040904604          0.1978
C389       C    0.4999952106    0.5991999205    0.7500026029          0.1978
C390       C    0.4965332520    0.6180496050    0.7959144240          0.1978
H391       H    0.4939697075    0.6697032739    0.8299007755          0.1978
H392       H    0.5060176267    0.6697025937    0.6701046815          0.1978
H393       H    0.5060191215    0.6040965800    0.6701037876          0.1978
H394       H    0.4939712023    0.6040972602    0.8298998817          0.1978
C375       C    0.1840228201    0.4606836534    0.0914043255          0.1978
C376       C    0.1745977439    0.4246005684    0.0992106004          0.1978
C377       C    0.1840226352    0.4073670622    0.1447171259          0.1978
C378       C    0.2028726025    0.4262166410    0.1824173764          0.1978
C379       C    0.2122976787    0.4622997260    0.1746111015          0.1978
C380       C    0.2028727874    0.4795332322    0.1291045761          0.1978
H381       H    0.1770459526    0.4734409243    0.0577176768          0.1978
H382       H    0.1770465256    0.3806579456    0.1504967430          0.1978
H383       H    0.2098494700    0.4134593702    0.2161040251          0.1978
H384       H    0.2098488970    0.5062423489    0.1233249590          0.1978
C365       C    0.1571958129    0.5654498886    0.3556470315          0.1978
C366       C    0.1745963412    0.5753948475    0.4008044839          0.1978
C367       C    0.2108476629    0.5664902636    0.4082624807          0.1978
C368       C    0.2296984564    0.5476407207    0.3705630251          0.1978
C369       C    0.2122979281    0.5376957618    0.3254055727          0.1978
C370       C    0.1760466063    0.5466003457    0.3179475759          0.1978
H371       H    0.1303604188    0.5720415936    0.3501261767          0.1978
H372       H    0.2237286194    0.5738512050    0.4416881025          0.1978
H373       H    0.2565338504    0.5410490157    0.3760838799          0.1978
H374       H    0.1631656499    0.5392394043    0.2845219541          0.1978
C355       C    0.4360547772    0.7700881668    0.1455273788          0.1978
C356       C    0.4622944120    0.7876987822    0.1746008977          0.1978
C357       C    0.4696846808    0.8241602075    0.1659747820          0.1978
C358       C    0.4508353148    0.8430110175    0.1282751473          0.1978
C359       C    0.4245956800    0.8254004022    0.0992016284          0.1978
C360       C    0.4172054112    0.7889389768    0.1078277442          0.1978
H361       H    0.4305840588    0.7430972416    0.1519129450          0.1978
H362       H    0.4891073991    0.8371966763    0.1874946244          0.1978
H363       H    0.4563060332    0.8700019428    0.1218895811          0.1978
H364       H    0.3977826929    0.7759025080    0.0863079018          0.1978
C345       C    0.5897120070    0.8225292554    0.3516448317          0.1978
C346       C    0.5753916483    0.8253975912    0.4007971464          0.1978
C347       C    0.5422214028    0.8094158996    0.4122495785          0.1978
C348       C    0.5233715160    0.7905658722    0.3745496960          0.1978
C349       C    0.5376918748    0.7876975364    0.3253973813          0.1978
C350       C    0.5708621203    0.8036792280    0.3139449492          0.1978
H351       H    0.6142666044    0.8343598583    0.3431670572          0.1978
H352       H    0.5316204743    0.8115385258    0.4486323096          0.1978
H353       H    0.4988169187    0.7787352693    0.3830274705          0.1978
H354       H    0.5814630487    0.8015566018    0.2775622181          0.1978
C335       C    0.7726203260    0.5419843389    0.1261135557          0.1978
C336       C    0.7876945450    0.5376998457    0.1746045301          0.1978
C337       C    0.8216195416    0.5522645173    0.1853956689          0.1978
C338       C    0.8404703192    0.5711136821    0.1476958333          0.1978
C339       C    0.8253961002    0.5753981752    0.0992048590          0.1978
C340       C    0.7914711036    0.5608335036    0.0884137202          0.1978
H341       H    0.7475070168    0.5312026989    0.1181253101          0.1978
H342       H    0.8327784985    0.5490936116    0.2212888573          0.1978
H343       H    0.8655836284    0.5818953220    0.1556840789          0.1978
H344       H    0.7803121466    0.5640044093    0.0525205318          0.1978
C325       C    0.7741864264    0.4608266596    0.3751305937          0.1978
C326       C    0.7876949003    0.4623041166    0.3253990578          0.1978
C327       C    0.8200535321    0.4449317891    0.3133673901          0.1978
C328       C    0.8389036899    0.4260820046    0.3510672584          0.1978
C329       C    0.8253952161    0.4246045476    0.4007987944          0.1978
C330       C    0.7930365843    0.4419768752    0.4128304620          0.1978
H331       H    0.7502326341    0.4736866943    0.3840371529          0.1978
H332       H    0.8300534805    0.4460248477    0.2765559032          0.1978
H333       H    0.8628574823    0.4132219699    0.3421606992          0.1978
H334       H    0.7830366359    0.4408838166    0.4496419490          0.1978
C315       C    0.3819466195    0.4999989061    0.2961772502          0.1978
C316       C    0.4007960374    0.4999989500    0.2500041706          0.1978
C317       C    0.3819453961    0.4999989061    0.2038327939          0.1978
C318       C    0.3442453369    0.4999988183    0.2038344968          0.1978
C319       C    0.3253959190    0.4999987744    0.2500075765          0.1978
C320       C    0.3442465603    0.4999988183    0.2961789532          0.1978
H321       H    0.3959009903    0.4999989386    0.3303560615          0.1978
H322       H    0.3958970716    0.4999989385    0.1696541832          0.1978
H323       H    0.3302909661    0.4999987858    0.1696556855          0.1978
H324       H    0.3302948847    0.4999987858    0.3303575638          0.1978
C305       C    0.4673454827    0.6180523032    0.2500007385          0.1978
C306       C    0.4999947230    0.5992023420    0.2500005753          0.1978
C307       C    0.5326433896    0.6180523872    0.2499998734          0.1978
C308       C    0.5326428160    0.6557523936    0.2499993348          0.1978
C309       C    0.4999935757    0.6746023548    0.2499994981          0.1978
C310       C    0.4673449091    0.6557523096    0.2500002000          0.1978
H311       H    0.4431769892    0.6040983736    0.2500012581          0.1978
H312       H    0.5568112744    0.6041003094    0.2499997525          0.1978
H313       H    0.5568113095    0.6697063231    0.2499988153          0.1978
H314       H    0.4431770243    0.6697043873    0.2500003208          0.1978
C295       C    0.6180469248    0.4953263032    0.2043038306          0.1978
C296       C    0.5991963645    0.5000008799    0.2500002694          0.1978
C297       C    0.6180458634    0.5046761084    0.2956967361          0.1978
C298       C    0.6557459226    0.5046767601    0.2956967639          0.1978
C299       C    0.6745964829    0.5000021833    0.2500003250          0.1978
C300       C    0.6557469840    0.4953269549    0.2043038584          0.1978
H301       H    0.6040933996    0.4918654198    0.1704765761          0.1978
H302       H    0.6040933422    0.5081363614    0.3295225239          0.1978
H303       H    0.6696994478    0.5081376435    0.3295240184          0.1978
H304       H    0.6696995051    0.4918667018    0.1704780706          0.1978
C285       C    0.5900268332    0.1780319697    0.1481006043          0.1978
C286       C    0.5753967991    0.1745986721    0.0992037651          0.1978
C287       C    0.5419173815    0.1900161801    0.0880065288          0.1978
C288       C    0.5230679980    0.2088669856    0.1257061317          0.1978
C289       C    0.5376980321    0.2123002833    0.1746029708          0.1978
C290       C    0.5711774497    0.1968827753    0.1858002071          0.1978
H291       H    0.6148102982    0.1666190092    0.1563894675          0.1978
H292       H    0.5310872228    0.1874753533    0.0518129078          0.1978
H293       H    0.4982845331    0.2202799461    0.1174172684          0.1978
H294       H    0.5820076085    0.1994236020    0.2219938281          0.1978
C275       C    0.4751443089    0.1790262335    0.3426681356          0.1978
C276       C    0.4623007680    0.2123012895    0.3253994619          0.1978
C277       C    0.4306074838    0.2267261521    0.3458306295          0.1978
C278       C    0.4117577405    0.2078759587    0.3835304707          0.1978
C279       C    0.4246012813    0.1746009028    0.4007991444          0.1978
C280       C    0.4562945655    0.1601760402    0.3803679769          0.1978
H281       H    0.4986055713    0.1683480885    0.3275437649          0.1978
H282       H    0.4210997375    0.2513566867    0.3330490652          0.1978
H283       H    0.3882964781    0.2185541038    0.3986548415          0.1978
H284       H    0.4658023118    0.1355455055    0.3931495412          0.1978
C265       C    0.4684668550    0.3819459280    0.2380225126          0.1978
C266       C    0.4999976263    0.4007968080    0.2500013991          0.1978
C267       C    0.5315289681    0.3819476817    0.2619800894          0.1978
C268       C    0.5315295386    0.3442476753    0.2619798931          0.1978
C269       C    0.4999987672    0.3253967952    0.2500010065          0.1978
C270       C    0.4684674254    0.3442459216    0.2380223163          0.1978
H271       H    0.4451254721    0.3958991774    0.2291551704          0.1978
H272       H    0.5548689309    0.3959004396    0.2708471977          0.1978
H273       H    0.5548709215    0.3302944259    0.2708472352          0.1978
H274       H    0.4451274627    0.3302931637    0.2291552079          0.1978
loop_
_geom_bond_atom_site_label_1
_geom_bond_atom_site_label_2
_geom_bond_distance
_geom_bond_site_symmetry_2
_ccdc_geom_bond_type
C1           N2 1.540       .   A
C1           N6 1.540       .   A
C1         C289 1.540       .   S
N2           C3 1.540       .   A
C3           N4 1.540       .   A
C3         C269 1.540       .   S
N4           C5 1.540       .   A
C5           N6 1.540       .   A
C5         C276 1.540       .   S
O7         Cu15 1.951       .   S
O7          C17 1.250       .   A
O8         Cu15 1.951       .   S
O8          C18 1.250       .   A
O9         Cu15 1.951       .   S
O9          C19 1.250       .   A
O10        Cu15 1.951       .   S
O10         C20 1.250       .   A
O11        Cu16 1.951       .   S
O11         C20 1.250       .   A
O12        Cu16 1.951       .   S
O12         C19 1.251       .   A
O13        Cu16 1.951       .   S
O13         C18 1.250       .   A
O14        Cu16 1.951       .   S
O14         C17 1.250       .   A
Cu15       Cu16 2.630       .   S
C17        C266 1.540       .   S
C18        C306 1.540       .   S
C19        C296 1.540       .   S
C20        C316 1.540       .   S
C21         N22 1.540       .   A
C21         N26 1.540       .   A
C21        C299 1.540       .   S
N22         C23 1.540       .   A
C23         N24 1.540       .   A
C23        C326 1.540       .   S
N24         C25 1.540       .   A
C25         N26 1.540       .   A
C25        C336 1.540       .   S
C27         N28 1.540       .   A
C27         N32 1.540       .   A
C27        C356 1.540       .   S
N28         C29 1.540       .   A
C29         N30 1.540       .   A
C29        C309 1.540       .   S
N30         C31 1.540       .   A
C31         N32 1.540       .   A
C31        C349 1.540       .   S
C33         N34 1.540       .   A
C33         N38 1.540       .   A
C33        C319 1.540       .   S
N34         C35 1.540       .   A
C35         N36 1.540       .   A
C35        C369 1.540       .   S
N36         C37 1.540       .   A
C37         N38 1.540       .   A
C37        C379 1.540       .   S
C39         N40 1.540       .   A
C39         N44 1.540       .   A
C39        C406 1.540       .   S
N40         C41 1.540       .   A
C41         N42 1.540       .   A
C41        C386 1.540       .   S
N42         C43 1.540       .   A
C43         N44 1.540       .   A
C43        C396 1.540       .   S
O45        Cu53 1.951       .   S
O45         C55 1.250       .   A
O46        Cu53 1.951       .   S
O46         C56 1.250       .   A
O47        Cu53 1.951       .   S
O47         C57 1.250       .   A
O48        Cu53 1.951       .   S
O48         C58 1.250       .   A
O49        Cu54 1.951       .   S
O49         C58 1.250       .   A
O50        Cu54 1.951       .   S
O50         C57 1.251       .   A
O51        Cu54 1.951       .   S
O51         C56 1.250       .   A
O52        Cu54 1.951       .   S
O52         C55 1.250       .   A
Cu53       Cu54 2.630       .   S
C55        C416 1.540       .   S
C56        C436 1.540       .   S
C57        C389 1.540       .   S
C58        C426 1.540       .   S
C59         N60 1.540       .   A
C59         N64 1.540       .   A
C59        C456 1.540       .   S
N60         C61 1.540       .   A
C61         N62 1.540       .   A
C61        C419 1.540       .   S
N62         C63 1.540       .   A
C63         N64 1.540       .   A
C63        C446 1.540       .   S
C65         N66 1.540       .   A
C65         N70 1.540       .   A
C65        C476 1.540       .   S
N66         C67 1.540       .   A
C67         N68 1.540       .   A
C67        C429 1.540       .   S
N68         C69 1.540       .   A
C69         N70 1.540       .   A
C69        C469 1.540       .   S
C71         N72 1.540       .   A
C71         N76 1.540       .   A
C71        C439 1.540       .   S
N72         C73 1.540       .   A
C73         N74 1.540       .   A
C73        C486 1.540       .   S
N74         C75 1.540       .   A
C75         N76 1.540       .   A
C75        C496 1.540       .   S
C77         N78 1.540       .   A
C77         N82 1.540       .   A
C77        C506 1.540       .   S
N78         C79 1.540       .   A
C79         N80 1.540       .   A
C79        C526 1.540       .   S
N80         C81 1.540       .   A
C81         N82 1.540       .   A
C81        C516 1.540       .   S
O83        Cu91 1.951       .   S
O83         C93 1.250       .   A
O84        Cu91 1.951       .   S
O84         C94 1.250       .   A
O85        Cu91 1.951       .   S
O85         C95 1.250       .   A
O86        Cu91 1.951       .   S
O86         C96 1.250       .   A
O87        Cu92 1.951       .   S
O87         C96 1.250       .   A
O88        Cu92 1.951       .   S
O88         C95 1.251       .   A
O89        Cu92 1.951       .   S
O89         C94 1.250       .   A
O90        Cu92 1.951       .   S
O90         C93 1.250       .   A
Cu91       Cu92 2.630       .   S
C93        C509 1.540   1_655   S
C94        C546 1.540       .   S
C95        C556 1.540       .   S
C96        C536 1.540       .   S
C97         N98 1.540       .   A
C97        N102 1.540       .   A
C97        C579 1.540       .   S
N98         C99 1.540       .   A
C99        N100 1.540       .   A
C99        C539 1.540   1_445   S
N100       C101 1.540       .   A
C101       N102 1.540       .   A
C101       C566 1.540       .   S
C103       N104 1.540       .   A
C103       N108 1.540       .   A
C103       C596 1.540       .   S
N104       C105 1.540       .   A
C105       N106 1.540       .   A
C105       C586 1.540       .   S
N106       C107 1.540       .   A
C107       N108 1.540       .   A
C107       C549 1.540   1_545   S
C109       N110 1.540       .   A
C109       N114 1.540       .   A
C109       C616 1.540       .   S
N110       C111 1.540       .   A
C111       N112 1.540       .   A
C111       C606 1.540       .   S
N112       C113 1.540       .   A
C113       N114 1.540       .   A
C113       C559 1.540       .   S
C115       N116 1.540       .   A
C115       N120 1.540       .   A
C115       C626 1.540       .   S
N116       C117 1.540       .   A
C117       N118 1.540       .   A
C117       C636 1.540       .   S
N118       C119 1.540       .   A
C119       N120 1.540       .   A
C119       C646 1.540       .   S
O121      Cu129 1.951       .   S
O121       C131 1.250       .   A
O122      Cu129 1.951       .   S
O122       C132 1.250       .   A
O123      Cu129 1.951       .   S
O123       C133 1.250       .   A
O124      Cu129 1.951       .   S
O124       C134 1.250       .   A
O125      Cu130 1.951       .   S
O125       C134 1.250       .   A
O126      Cu130 1.951       .   S
O126       C133 1.251       .   A
O127      Cu130 1.951       .   S
O127       C132 1.250       .   A
O128      Cu130 1.951       .   S
O128       C131 1.250       .   A
Cu129     Cu130 2.630       .   S
C131       C629 1.540   1_565   S
C132       C666 1.540       .   S
C133       C676 1.540       .   S
C134       C656 1.540       .   S
C135       N136 1.540       .   A
C135       N140 1.540       .   A
C135       C696 1.540       .   S
N136       C137 1.540       .   A
C137       N138 1.540       .   A
C137       C659 1.540       .   S
N138       C139 1.540       .   A
C139       N140 1.540       .   A
C139       C686 1.540       .   S
C141       N142 1.540       .   A
C141       N146 1.540       .   A
C141       C669 1.540   1_455   S
N142       C143 1.540       .   A
C143       N144 1.540       .   A
C143       C709 1.540       .   S
N144       C145 1.540       .   A
C145       N146 1.540       .   A
C145       C716 1.540       .   S
C147       N148 1.540       .   A
C147       N152 1.540       .   A
C147       C736 1.540       .   S
N148       C149 1.540       .   A
C149       N150 1.540       .   A
C149       C679 1.540   1_445   S
N150       C151 1.540       .   A
C151       N152 1.540       .   A
C151       C726 1.540       .   S
O153      Cu161 1.951       .   S
O153       C163 1.250       .   A
O154      Cu161 1.951       .   S
O154       C164 1.250       .   A
O155      Cu161 1.951       .   S
O155       C165 1.250       .   A
O156      Cu161 1.951       .   S
O156       C166 1.250       .   A
O157      Cu162 1.951       .   S
O157       C166 1.250       .   A
O158      Cu162 1.951       .   S
O158       C165 1.251       .   A
O159      Cu162 1.951       .   S
O159       C164 1.250       .   A
O160      Cu162 1.951       .   S
O160       C163 1.250       .   A
Cu161     Cu162 2.630       .   S
C163       C589 1.540   1_454   S
C164       C376 1.540       .   S
C165       C459 1.540   1_554   S
C166       C639 1.540   1_455   S
O167      Cu175 1.951       .   S
O167       C177 1.250       .   A
O168      Cu175 1.951       .   S
O168       C178 1.250       .   A
O169      Cu175 1.951       .   S
O169       C179 1.250       .   A
O170      Cu175 1.951       .   S
O170       C180 1.250       .   A
O171      Cu176 1.951       .   S
O171       C180 1.250       .   A
O172      Cu176 1.951       .   S
O172       C179 1.251       .   A
O173      Cu176 1.951       .   S
O173       C178 1.250       .   A
O174      Cu176 1.951       .   S
O174       C177 1.250       .   A
Cu175     Cu176 2.630       .   S
C177       C286 1.540       .   S
C178       C609 1.540   1_544   S
C179       C689 1.540   1_545   S
C180       C479 1.540   1_554   S
O181      Cu189 1.951       .   S
O181       C191 1.250       .   A
O182      Cu189 1.951       .   S
O182       C192 1.250       .   A
O183      Cu189 1.951       .   S
O183       C193 1.250       .   A
O184      Cu189 1.951       .   S
O184       C194 1.250       .   A
O185      Cu190 1.951       .   S
O185       C194 1.250       .   A
O186      Cu190 1.951       .   S
O186       C193 1.251       .   A
O187      Cu190 1.951       .   S
O187       C192 1.250       .   A
O188      Cu190 1.951       .   S
O188       C191 1.250       .   A
Cu189     Cu190 2.630       .   S
C191       C339 1.540       .   S
C192       C519 1.540   1_654   S
C193       C706 1.540   1_655   S
C194       C499 1.540   1_554   S
O195      Cu203 1.951       .   S
O195       C205 1.250       .   A
O196      Cu203 1.951       .   S
O196       C206 1.250       .   A
O197      Cu203 1.951       .   S
O197       C207 1.250       .   A
O198      Cu203 1.951       .   S
O198       C208 1.250       .   A
O199      Cu204 1.951       .   S
O199       C208 1.250       .   A
O200      Cu204 1.951       .   S
O200       C207 1.251       .   A
O201      Cu204 1.951       .   S
O201       C206 1.250       .   A
O202      Cu204 1.951       .   S
O202       C205 1.250       .   A
Cu203     Cu204 2.630       .   S
C205       C409 1.540   1_554   S
C206       C729 1.540   1_565   S
C207       C569 1.540   1_564   S
C208       C359 1.540       .   S
O209      Cu217 1.951       .   S
O209       C219 1.250       .   A
O210      Cu217 1.951       .   S
O210       C220 1.250       .   A
O211      Cu217 1.951       .   S
O211       C221 1.250       .   A
O212      Cu217 1.951       .   S
O212       C222 1.250       .   A
O213      Cu218 1.951       .   S
O213       C222 1.250       .   A
O214      Cu218 1.951       .   S
O214       C221 1.251       .   A
O215      Cu218 1.951       .   S
O215       C220 1.250       .   A
O216      Cu218 1.951       .   S
O216       C219 1.250       .   A
Cu217     Cu218 2.630       .   S
C219       C719 1.540       .   S
C220       C449 1.540       .   S
C221       C366 1.540       .   S
C222       C529 1.540       .   S
O223      Cu231 1.951       .   S
O223       C233 1.250       .   A
O224      Cu231 1.951       .   S
O224       C234 1.250       .   A
O225      Cu231 1.951       .   S
O225       C235 1.250       .   A
O226      Cu231 1.951       .   S
O226       C236 1.250       .   A
O227      Cu232 1.951       .   S
O227       C236 1.250       .   A
O228      Cu232 1.951       .   S
O228       C235 1.251       .   A
O229      Cu232 1.951       .   S
O229       C234 1.250       .   A
O230      Cu232 1.951       .   S
O230       C233 1.250       .   A
Cu231     Cu232 2.630       .   S
C233       C279 1.540       .   S
C234       C576 1.540       .   S
C235       C739 1.540       .   S
C236       C466 1.540       .   S
O237      Cu245 1.951       .   S
O237       C247 1.250       .   A
O238      Cu245 1.951       .   S
O238       C248 1.250       .   A
O239      Cu245 1.951       .   S
O239       C249 1.250       .   A
O240      Cu245 1.951       .   S
O240       C250 1.250       .   A
O241      Cu246 1.951       .   S
O241       C250 1.250       .   A
O242      Cu246 1.951       .   S
O242       C249 1.251       .   A
O243      Cu246 1.951       .   S
O243       C248 1.250       .   A
O244      Cu246 1.951       .   S
O244       C247 1.250       .   A
Cu245     Cu246 2.630       .   S
C247       C329 1.540       .   S
C248       C599 1.540       .   S
C249       C649 1.540       .   S
C250       C489 1.540       .   S
O251      Cu259 1.951       .   S
O251       C261 1.250       .   A
O252      Cu259 1.951       .   S
O252       C262 1.250       .   A
O253      Cu259 1.951       .   S
O253       C263 1.250       .   A
O254      Cu259 1.951       .   S
O254       C264 1.250       .   A
O255      Cu260 1.951       .   S
O255       C264 1.250       .   A
O256      Cu260 1.951       .   S
O256       C263 1.251       .   A
O257      Cu260 1.951       .   S
O257       C262 1.250       .   A
O258      Cu260 1.951       .   S
O258       C261 1.250       .   A
Cu259     Cu260 2.630       .   S
C261       C346 1.540       .   S
C262       C619 1.540       .   S
C263       C699 1.540       .   S
C264       C399 1.540       .   S
C735       C736 1.540       .   A
C735       C740 1.540       .   A
C735       H741 1.140       .   S
C736       C737 1.540       .   A
C737       C738 1.540       .   A
C737       H742 1.140       .   S
C738       C739 1.540       .   A
C738       H743 1.140       .   S
C739       C740 1.540       .   A
C740       H744 1.140       .   S
C725       C726 1.540       .   A
C725       C730 1.540       .   A
C725       H731 1.140       .   S
C726       C727 1.540       .   A
C727       C728 1.540       .   A
C727       H732 1.140       .   S
C728       C729 1.540       .   A
C728       H733 1.140       .   S
C729       C730 1.540       .   A
C730       H734 1.140       .   S
C715       C716 1.540       .   A
C715       C720 1.540       .   A
C715       H721 1.140       .   S
C716       C717 1.540       .   A
C717       C718 1.540       .   A
C717       H722 1.140       .   S
C718       C719 1.540       .   A
C718       H723 1.140       .   S
C719       C720 1.540       .   A
C720       H724 1.140       .   S
C705       C706 1.540       .   A
C705       C710 1.540       .   A
C705       H711 1.140       .   S
C706       C707 1.540       .   A
C707       C708 1.540       .   A
C707       H712 1.140       .   S
C708       C709 1.540       .   A
C708       H713 1.140       .   S
C709       C710 1.540       .   A
C710       H714 1.140       .   S
C695       C696 1.540       .   A
C695       C700 1.540       .   A
C695       H701 1.140       .   S
C696       C697 1.540       .   A
C697       C698 1.540       .   A
C697       H702 1.140       .   S
C698       C699 1.540       .   A
C698       H703 1.140       .   S
C699       C700 1.540       .   A
C700       H704 1.140       .   S
C685       C686 1.540       .   A
C685       C690 1.540       .   A
C685       H691 1.140       .   S
C686       C687 1.540       .   A
C687       C688 1.540       .   A
C687       H692 1.140       .   S
C688       C689 1.540       .   A
C688       H693 1.140       .   S
C689       C690 1.540       .   A
C690       H694 1.140       .   S
C675       C676 1.540       .   A
C675       C680 1.540       .   A
C675       H681 1.140       .   S
C676       C677 1.540       .   A
C677       C678 1.540       .   A
C677       H682 1.140       .   S
C678       C679 1.540       .   A
C678       H683 1.140       .   S
C679       C680 1.540       .   A
C680       H684 1.140       .   S
C665       C666 1.540       .   A
C665       C670 1.540       .   A
C665       H671 1.140       .   S
C666       C667 1.540       .   A
C667       C668 1.540       .   A
C667       H672 1.140       .   S
C668       C669 1.540       .   A
C668       H673 1.140       .   S
C669       C670 1.540       .   A
C670       H674 1.140       .   S
C655       C656 1.540       .   A
C655       C660 1.540       .   A
C655       H661 1.140       .   S
C656       C657 1.540       .   A
C657       C658 1.540       .   A
C657       H662 1.140       .   S
C658       C659 1.540       .   A
C658       H663 1.140       .   S
C659       C660 1.540       .   A
C660       H664 1.140       .   S
C645       C646 1.540       .   A
C645       C650 1.540       .   A
C645       H651 1.140       .   S
C646       C647 1.540       .   A
C647       C648 1.540       .   A
C647       H652 1.140       .   S
C648       C649 1.540       .   A
C648       H653 1.140       .   S
C649       C650 1.540       .   A
C650       H654 1.140       .   S
C635       C636 1.540       .   A
C635       C640 1.540       .   A
C635       H641 1.140       .   S
C636       C637 1.540       .   A
C637       C638 1.540       .   A
C637       H642 1.140       .   S
C638       C639 1.540       .   A
C638       H643 1.140       .   S
C639       C640 1.540       .   A
C640       H644 1.140       .   S
C625       C626 1.540       .   A
C625       C630 1.540       .   A
C625       H631 1.140       .   S
C626       C627 1.540       .   A
C627       C628 1.540       .   A
C627       H632 1.140       .   S
C628       C629 1.540       .   A
C628       H633 1.140       .   S
C629       C630 1.540       .   A
C630       H634 1.140       .   S
C615       C616 1.540       .   A
C615       C620 1.540       .   A
C615       H621 1.140       .   S
C616       C617 1.540       .   A
C617       C618 1.540       .   A
C617       H622 1.140       .   S
C618       C619 1.540       .   A
C618       H623 1.140       .   S
C619       C620 1.540       .   A
C620       H624 1.140       .   S
C605       C606 1.540       .   A
C605       C610 1.540       .   A
C605       H611 1.140       .   S
C606       C607 1.540       .   A
C607       C608 1.540       .   A
C607       H612 1.140       .   S
C608       C609 1.540       .   A
C608       H613 1.140       .   S
C609       C610 1.540       .   A
C610       H614 1.140       .   S
C595       C596 1.540       .   A
C595       C600 1.540       .   A
C595       H601 1.140       .   S
C596       C597 1.540       .   A
C597       C598 1.540       .   A
C597       H602 1.140       .   S
C598       C599 1.540       .   A
C598       H603 1.140       .   S
C599       C600 1.540       .   A
C600       H604 1.140       .   S
C585       C586 1.540       .   A
C585       C590 1.540       .   A
C585       H591 1.140       .   S
C586       C587 1.540       .   A
C587       C588 1.540       .   A
C587       H592 1.140       .   S
C588       C589 1.540       .   A
C588       H593 1.140       .   S
C589       C590 1.540       .   A
C590       H594 1.140       .   S
C575       C576 1.540       .   A
C575       C580 1.540       .   A
C575       H581 1.140       .   S
C576       C577 1.540       .   A
C577       C578 1.540       .   A
C577       H582 1.140       .   S
C578       C579 1.540       .   A
C578       H583 1.140       .   S
C579       C580 1.540       .   A
C580       H584 1.140       .   S
C565       C566 1.540       .   A
C565       C570 1.540       .   A
C565       H571 1.140       .   S
C566       C567 1.540       .   A
C567       C568 1.540       .   A
C567       H572 1.140       .   S
C568       C569 1.540       .   A
C568       H573 1.140       .   S
C569       C570 1.540       .   A
C570       H574 1.140       .   S
C555       C556 1.540       .   A
C555       C560 1.540       .   A
C555       H561 1.140       .   S
C556       C557 1.540       .   A
C557       C558 1.540       .   A
C557       H562 1.140       .   S
C558       C559 1.540       .   A
C558       H563 1.140       .   S
C559       C560 1.540       .   A
C560       H564 1.140       .   S
C545       C546 1.540       .   A
C545       C550 1.540       .   A
C545       H551 1.140       .   S
C546       C547 1.540       .   A
C547       C548 1.540       .   A
C547       H552 1.140       .   S
C548       C549 1.540       .   A
C548       H553 1.140       .   S
C549       C550 1.540       .   A
C550       H554 1.140       .   S
C535       C536 1.540       .   A
C535       C540 1.540       .   A
C535       H541 1.140       .   S
C536       C537 1.540       .   A
C537       C538 1.540       .   A
C537       H542 1.140       .   S
C538       C539 1.540       .   A
C538       H543 1.140       .   S
C539       C540 1.540       .   A
C540       H544 1.140       .   S
C525       C526 1.540       .   A
C525       C530 1.540       .   A
C525       H531 1.140       .   S
C526       C527 1.540       .   A
C527       C528 1.540       .   A
C527       H532 1.140       .   S
C528       C529 1.540       .   A
C528       H533 1.140       .   S
C529       C530 1.540       .   A
C530       H534 1.140       .   S
C515       C516 1.540       .   A
C515       C520 1.540       .   A
C515       H521 1.140       .   S
C516       C517 1.540       .   A
C517       C518 1.540       .   A
C517       H522 1.140       .   S
C518       C519 1.540       .   A
C518       H523 1.140       .   S
C519       C520 1.540       .   A
C520       H524 1.140       .   S
C505       C506 1.540       .   A
C505       C510 1.540       .   A
C505       H511 1.140       .   S
C506       C507 1.540       .   A
C507       C508 1.540       .   A
C507       H512 1.140       .   S
C508       C509 1.540       .   A
C508       H513 1.140       .   S
C509       C510 1.540       .   A
C510       H514 1.140       .   S
C495       C496 1.540       .   A
C495       C500 1.540       .   A
C495       H501 1.140       .   S
C496       C497 1.540       .   A
C497       C498 1.540       .   A
C497       H502 1.140       .   S
C498       C499 1.540       .   A
C498       H503 1.140       .   S
C499       C500 1.540       .   A
C500       H504 1.140       .   S
C485       C486 1.540       .   A
C485       C490 1.540       .   A
C485       H491 1.140       .   S
C486       C487 1.540       .   A
C487       C488 1.540       .   A
C487       H492 1.140       .   S
C488       C489 1.540       .   A
C488       H493 1.140       .   S
C489       C490 1.540       .   A
C490       H494 1.140       .   S
C475       C476 1.540       .   A
C475       C480 1.540       .   A
C475       H481 1.140       .   S
C476       C477 1.540       .   A
C477       C478 1.540       .   A
C477       H482 1.140       .   S
C478       C479 1.540       .   A
C478       H483 1.140       .   S
C479       C480 1.540       .   A
C480       H484 1.140       .   S
C465       C466 1.540       .   A
C465       C470 1.540       .   A
C465       H471 1.140       .   S
C466       C467 1.540       .   A
C467       C468 1.540       .   A
C467       H472 1.140       .   S
C468       C469 1.540       .   A
C468       H473 1.140       .   S
C469       C470 1.540       .   A
C470       H474 1.140       .   S
C455       C456 1.540       .   A
C455       C460 1.540       .   A
C455       H461 1.140       .   S
C456       C457 1.540       .   A
C457       C458 1.540       .   A
C457       H462 1.140       .   S
C458       C459 1.540       .   A
C458       H463 1.140       .   S
C459       C460 1.540       .   A
C460       H464 1.140       .   S
C445       C446 1.540       .   A
C445       C450 1.540       .   A
C445       H451 1.140       .   S
C446       C447 1.540       .   A
C447       C448 1.540       .   A
C447       H452 1.140       .   S
C448       C449 1.540       .   A
C448       H453 1.140       .   S
C449       C450 1.540       .   A
C450       H454 1.140       .   S
C435       C436 1.540       .   A
C435       C440 1.540       .   A
C435       H441 1.140       .   S
C436       C437 1.540       .   A
C437       C438 1.540       .   A
C437       H442 1.140       .   S
C438       C439 1.540       .   A
C438       H443 1.140       .   S
C439       C440 1.540       .   A
C440       H444 1.140       .   S
C425       C426 1.540       .   A
C425       C430 1.540       .   A
C425       H431 1.140       .   S
C426       C427 1.540       .   A
C427       C428 1.540       .   A
C427       H432 1.140       .   S
C428       C429 1.540       .   A
C428       H433 1.140       .   S
C429       C430 1.540       .   A
C430       H434 1.140       .   S
C415       C416 1.540       .   A
C415       C420 1.540       .   A
C415       H421 1.140       .   S
C416       C417 1.540       .   A
C417       C418 1.540       .   A
C417       H422 1.140       .   S
C418       C419 1.540       .   A
C418       H423 1.140       .   S
C419       C420 1.540       .   A
C420       H424 1.140       .   S
C405       C406 1.540       .   A
C405       C410 1.540       .   A
C405       H411 1.140       .   S
C406       C407 1.540       .   A
C407       C408 1.540       .   A
C407       H412 1.140       .   S
C408       C409 1.540       .   A
C408       H413 1.140       .   S
C409       C410 1.540       .   A
C410       H414 1.140       .   S
C395       C396 1.540       .   A
C395       C400 1.540       .   A
C395       H401 1.140       .   S
C396       C397 1.540       .   A
C397       C398 1.540       .   A
C397       H402 1.140       .   S
C398       C399 1.540       .   A
C398       H403 1.140       .   S
C399       C400 1.540       .   A
C400       H404 1.140       .   S
C385       C386 1.540       .   A
C385       C390 1.540       .   A
C385       H391 1.140       .   S
C386       C387 1.540       .   A
C387       C388 1.540       .   A
C387       H392 1.140       .   S
C388       C389 1.540       .   A
C388       H393 1.140       .   S
C389       C390 1.540       .   A
C390       H394 1.140       .   S
C375       C376 1.540       .   A
C375       C380 1.540       .   A
C375       H381 1.140       .   S
C376       C377 1.540       .   A
C377       C378 1.540       .   A
C377       H382 1.140       .   S
C378       C379 1.540       .   A
C378       H383 1.140       .   S
C379       C380 1.540       .   A
C380       H384 1.140       .   S
C365       C366 1.540       .   A
C365       C370 1.540       .   A
C365       H371 1.140       .   S
C366       C367 1.540       .   A
C367       C368 1.540       .   A
C367       H372 1.140       .   S
C368       C369 1.540       .   A
C368       H373 1.140       .   S
C369       C370 1.540       .   A
C370       H374 1.140       .   S
C355       C356 1.540       .   A
C355       C360 1.540       .   A
C355       H361 1.140       .   S
C356       C357 1.540       .   A
C357       C358 1.540       .   A
C357       H362 1.140       .   S
C358       C359 1.540       .   A
C358       H363 1.140       .   S
C359       C360 1.540       .   A
C360       H364 1.140       .   S
C345       C346 1.540       .   A
C345       C350 1.540       .   A
C345       H351 1.140       .   S
C346       C347 1.540       .   A
C347       C348 1.540       .   A
C347       H352 1.140       .   S
C348       C349 1.540       .   A
C348       H353 1.140       .   S
C349       C350 1.540       .   A
C350       H354 1.140       .   S
C335       C336 1.540       .   A
C335       C340 1.540       .   A
C335       H341 1.140       .   S
C336       C337 1.540       .   A
C337       C338 1.540       .   A
C337       H342 1.140       .   S
C338       C339 1.540       .   A
C338       H343 1.140       .   S
C339       C340 1.540       .   A
C340       H344 1.140       .   S
C325       C326 1.540       .   A
C325       C330 1.540       .   A
C325       H331 1.140       .   S
C326       C327 1.540       .   A
C327       C328 1.540       .   A
C327       H332 1.140       .   S
C328       C329 1.540       .   A
C328       H333 1.140       .   S
C329       C330 1.540       .   A
C330       H334 1.140       .   S
C315       C316 1.540       .   A
C315       C320 1.540       .   A
C315       H321 1.140       .   S
C316       C317 1.540       .   A
C317       C318 1.540       .   A
C317       H322 1.140       .   S
C318       C319 1.540       .   A
C318       H323 1.140       .   S
C319       C320 1.540       .   A
C320       H324 1.140       .   S
C305       C306 1.540       .   A
C305       C310 1.540       .   A
C305       H311 1.140       .   S
C306       C307 1.540       .   A
C307       C308 1.540       .   A
C307       H312 1.140       .   S
C308       C309 1.540       .   A
C308       H313 1.140       .   S
C309       C310 1.540       .   A
C310       H314 1.140       .   S
C295       C296 1.540       .   A
C295       C300 1.540       .   A
C295       H301 1.140       .   S
C296       C297 1.540       .   A
C297       C298 1.540       .   A
C297       H302 1.140       .   S
C298       C299 1.540       .   A
C298       H303 1.140       .   S
C299       C300 1.540       .   A
C300       H304 1.140       .   S
C285       C286 1.540       .   A
C285       C290 1.540       .   A
C285       H291 1.140       .   S
C286       C287 1.540       .   A
C287       C288 1.540       .   A
C287       H292 1.140       .   S
C288       C289 1.540       .   A
C288       H293 1.140       .   S
C289       C290 1.540       .   A
C290       H294 1.140       .   S
C275       C276 1.540       .   A
C275       C280 1.540       .   A
C275       H281 1.140       .   S
C276       C277 1.540       .   A
C277       C278 1.540       .   A
C277       H282 1.140       .   S
C278       C279 1.540       .   A
C278       H283 1.140       .   S
C279       C280 1.540       .   A
C280       H284 1.140       .   S
C265       C266 1.540       .   A
C265       C270 1.540       .   A
C265       H271 1.140       .   S
C266       C267 1.540       .   A
C267       C268 1.540       .   A
C267       H272 1.140       .   S
C268       C269 1.540       .   A
C268       H273 1.140       .   S
C269       C270 1.540       .   A
C270       H274 1.140       .   S
