data_fjh_v1-3c_B_Ch_v2-4c_Cu_1_Ch_v3-4c_Cu_1_Ch_2-1B_4H_Ch
_audit_creation_date              2024-08-05
_audit_creation_method            'tobacco_3.0'
_symmetry_space_group_name_H-M    'P1'
_symmetry_Int_Tables_number       1
_symmetry_cell_setting            triclinic
loop_
_symmetry_equiv_pos_as_xyz
  x,y,z
_cell_length_a                    40.84922182275649
_cell_length_b                    40.84927902548176
_cell_length_c                    28.884989830900366
_cell_angle_alpha                 90.00000001909173
_cell_angle_beta                  90.000020133979
_cell_angle_gamma                 89.99997870417538
loop_
_atom_site_label
_atom_site_type_symbol
_atom_site_fract_x
_atom_site_fract_y
_atom_site_fract_z
_atom_site_charge
C1         C    0.5188496288    0.2311501086    0.2123006134          0.1854
C2         C    0.5188489664    0.2688479950    0.2123014236          0.1854
C3         C    0.4999993377    0.2876978864    0.2500008102          0.1854
C4         C    0.4811503712    0.2688498914    0.2876993866          0.1854
C5         C    0.4811510336    0.2311520050    0.2876985764          0.1854
C6         C    0.5000006623    0.2123021136    0.2499991898          0.1854
H7         H    0.5328034374    0.2828044267    0.1843920053          0.1854
H8         H    0.4671967499    0.2828037071    0.3156067247          0.1854
H9         H    0.4999998127    0.1843918662    0.2500012700          0.1854
O10        O    0.4999964945    0.4525024158    0.2115072602         -1.5411
O11        O    0.4999960457    0.5474969388    0.2115084553         -1.5509
O12        O    0.5474946022    0.5000042128    0.2115094002         -1.4371
O13        O    0.4524944768    0.4999986048    0.2115063073         -1.5212
O14        O    0.4524942891    0.4999985162    0.2884933010         -1.5167
O15        O    0.5474909522    0.5000006635    0.2884962681         -1.4292
O16        O    0.4999958580    0.5474968503    0.2884954490         -1.5543
O17        O    0.4999963068    0.4525023272    0.2884942540         -1.5421
Cu18      Cu    0.4999967036    0.5000022730    0.2044823359          1.0456
Cu19      Cu    0.4999956488    0.4999969931    0.2955203734          1.0433
C20        C    0.4999970559    0.4384957169    0.2500015954          0.1209
C21        C    0.4999952965    0.5615035491    0.2500011138          0.1123
C22        C    0.5614980359    0.5000002283    0.2500002416          0.0337
C23        C    0.4384943165    0.4999990378    0.2500024677          0.0965
C24        C    0.7122948114    0.5000028350    0.2500003528          0.1854
C25        C    0.7311445435    0.4811544702    0.2876978266          0.1854
C26        C    0.7688441601    0.4811544834    0.2876980249          0.1854
C27        C    0.7876940446    0.5000028613    0.2500007494          0.1854
C28        C    0.7688443124    0.5188512260    0.2123032756          0.1854
C29        C    0.7311446959    0.5188512128    0.2123030773          0.1854
H30        H    0.7171907329    0.4671990951    0.3156089618          0.1854
H31        H    0.8156015529    0.5000028710    0.2500008961          0.1854
H32        H    0.7171909981    0.5328065783    0.1843917954          0.1854
C33        C    0.4811428256    0.7688489247    0.2122986275          0.1854
C34        C    0.4811433823    0.7311510383    0.2122995447          0.1854
C35        C    0.4999930022    0.7123011476    0.2499989595          0.1854
C36        C    0.5188420654    0.7311491433    0.2876974572          0.1854
C37        C    0.5188415087    0.7688470297    0.2876965401          0.1854
C38        C    0.4999918888    0.7876969203    0.2499971252          0.1854
H39        H    0.4671888397    0.7171946061    0.1843901846          0.1854
H40        H    0.5327956801    0.7171953281    0.3156048163          0.1854
H41        H    0.4999928166    0.8156071677    0.2499991262          0.1854
C42        C    0.2876976398    0.4999986866    0.2500092794          0.1854
C43        C    0.2688478567    0.5188469751    0.2877067596          0.1854
C44        C    0.2311482401    0.5188467004    0.2877070799          0.1854
C45        C    0.2122984067    0.4999981371    0.2500099200          0.1854
C46        C    0.2311481899    0.4811498486    0.2123124397          0.1854
C47        C    0.2688478064    0.4811501234    0.2123121195          0.1854
H48        H    0.2828016295    0.5328024875    0.3156178092          0.1854
H49        H    0.1843908983    0.4999979337    0.2500101571          0.1854
H50        H    0.2828015420    0.4671948143    0.1844008327          0.1854
C51        C    0.4811425562    0.7688472956    0.7877019425          0.1854
C52        C    0.4811432023    0.7311494093    0.7877010615          0.1854
C53        C    0.4999928224    0.7122995452    0.7500016390          0.1854
C54        C    0.5188417964    0.7311475675    0.7123030974          0.1854
C55        C    0.5188411502    0.7688454539    0.7123039784          0.1854
C56        C    0.4999915301    0.7876953180    0.7500034010          0.1854
H57        H    0.4671887258    0.7171929573    0.8156104541          0.1854
H58        H    0.5327954112    0.7171937721    0.6843957326          0.1854
H59        H    0.4999923917    0.8156055653    0.7500013732          0.1854
O60        O    0.4525001860    0.4999978713    0.7884977931         -1.5411
O61        O    0.5474948420    0.5000002510    0.7884955242         -1.5509
O62        O    0.5000006352    0.5474973269    0.7884940731         -1.4371
O63        O    0.4999978559    0.4524973344    0.7884992523         -1.5212
O64        O    0.4999973130    0.4524962822    0.7115122586         -1.5167
O65        O    0.4999966318    0.5474928123    0.7115072053         -1.4292
O66        O    0.5474942992    0.4999991988    0.7115085305         -1.5543
O67        O    0.4524996432    0.4999968191    0.7115107994         -1.5421
Cu68      Cu    0.5000001511    0.4999995737    0.7955221805          1.0456
Cu69      Cu    0.4999943341    0.4999974964    0.7044841431          1.0433
C70        C    0.4384932404    0.4999975834    0.7500036163          0.1209
C71        C    0.5615012448    0.4999994867    0.7500027073          0.1123
C72        C    0.4999960066    0.5615003087    0.7500029242          0.0337
C73        C    0.4999984786    0.4384967615    0.7500033994          0.0965
C74        C    0.2311473955    0.4811453475    0.7877087101          0.1854
C75        C    0.2688453347    0.4811459987    0.7877075499          0.1854
C76        C    0.2876950596    0.4999955242    0.7500079076          0.1854
C77        C    0.2688468453    0.5188443986    0.7123094256          0.1854
C78        C    0.2311489062    0.5188437475    0.7123105859          0.1854
C79        C    0.2122991813    0.4999942219    0.7500102282          0.1854
H80        H    0.2828019287    0.4671915959    0.8156168982          0.1854
H81        H    0.2828005378    0.5327979435    0.6844018983          0.1854
H82        H    0.1843888948    0.4999950798    0.7500084072          0.1854
C83        C    0.5188518401    0.2311498195    0.7877038790          0.1854
C84        C    0.5188513026    0.2688477059    0.7877028912          0.1854
C85        C    0.5000016695    0.2876975708    0.7500034639          0.1854
C86        C    0.4811525738    0.2688495494    0.7123050243          0.1854
C87        C    0.4811531113    0.2311516631    0.7123060121          0.1854
C88        C    0.5000027445    0.2123017981    0.7500054394          0.1854
H89        H    0.5328058692    0.2828041572    0.8156122082          0.1854
H90        H    0.4671989493    0.2828033456    0.6843976561          0.1854
H91        H    0.5000018025    0.1843915507    0.7500034907          0.1854
C92        C    0.7122976587    0.5000025392    0.7500055020          0.1854
C93        C    0.7311474443    0.4811541687    0.7123081061          0.1854
C94        C    0.7688470608    0.4811542567    0.7123079774          0.1854
C95        C    0.7876968919    0.5000027151    0.7500052446          0.1854
C96        C    0.7688471063    0.5188510855    0.7877026405          0.1854
C97        C    0.7311474897    0.5188509976    0.7877027692          0.1854
H98        H    0.7171936732    0.4671987340    0.6843969771          0.1854
H99        H    0.8156044002    0.5000027801    0.7500051493          0.1854
H100       H    0.7171937524    0.5328063673    0.8156139935          0.1854
C101       C    0.0000012627    0.7876984337    0.7499995067          0.1854
C102       C    0.0188496704    0.7688485124    0.7123022838          0.1854
C103       C    0.0188496003    0.7311489486    0.7123024786          0.1854
C104       C    0.0000011225    0.7122993062    0.7499998962          0.1854
C105       C    0.9811527148    0.7311492275    0.7876971191          0.1854
C106       C    0.9811527849    0.7688487913    0.7876969243          0.1854
H107       H    0.0328051195    0.7828021438    0.6843910435          0.1854
H108       H    0.0000010706    0.6843918369    0.7500000403          0.1854
H109       H    0.9671973877    0.7828026292    0.8156080205          0.1854
O110       O    0.9999979490    0.9525011276    0.7884965615         -1.5411
O111       O    0.9999955091    0.0474956506    0.7884953689         -1.5509
O112       O    0.9524983968    0.0000015155    0.7884933840         -1.4371
O113       O    0.0474985223    0.9999987258    0.7884985545         -1.5212
O114       O    0.0474995518    0.9999986382    0.7115115608         -1.5167
O115       O    0.9525028887    0.9999979673    0.7115065162         -1.4292
O116       O    0.9999965386    0.0474955630    0.7115083752         -1.5543
O117       O    0.9999989785    0.9525010400    0.7115095678         -1.5421
Cu118     Cu    0.9999962186    0.0000009847    0.7955214871          1.0456
Cu119     Cu    0.9999982690    0.9999957060    0.7044834496          1.0433
C120       C    0.9999982344    0.9384944292    0.7500022260          0.1209
C121       C    0.9999962532    0.0615022614    0.7500027107          0.1123
C122       C    0.9384953841    0.9999971161    0.7500022364          0.0337
C123       C    0.0614991035    0.9999995746    0.7500027003          0.0965
C124       C    0.2688452219    0.0188531947    0.7123035512          0.1854
C125       C    0.2311472828    0.0188525135    0.7123044389          0.1854
C126       C    0.2122974366    0.0000028600    0.7500038318          0.1854
C127       C    0.2311455296    0.9811538876    0.7877023371          0.1854
C128       C    0.2688434687    0.9811545688    0.7877014494          0.1854
C129       C    0.2876933149    0.0000042224    0.7500020564          0.1854
H130       H    0.2171907785    0.0328069888    0.6843950733          0.1854
H131       H    0.2171917474    0.9672002479    0.8156096799          0.1854
H132       H    0.3156036014    0.0000033867    0.7500040792          0.1854
C133       C    0.9811436157    0.2688478431    0.7123022270          0.1854
C134       C    0.9999925787    0.2876958073    0.7500008563          0.1854
C135       C    0.0188421371    0.2688458852    0.7877003013          0.1854
C136       C    0.0188427324    0.2311479988    0.7877011168          0.1854
C137       C    0.9999937694    0.2123000346    0.7500024874          0.1854
C138       C    0.9811442111    0.2311499568    0.7123030425          0.1854
H139       H    0.9999934780    0.3156060547    0.7500029326          0.1854
H140       H    0.0327963016    0.2171941603    0.8156084981          0.1854
H141       H    0.9671897427    0.2171935479    0.6843935850          0.1854
C142       C    0.7311491342    0.9811439782    0.7123015551          0.1854
C143       C    0.7123010689    0.9999929618    0.7500000581          0.1854
C144       C    0.7311509428    0.0188424963    0.7876995612          0.1854
C145       C    0.7688488820    0.0188430471    0.7877005613          0.1854
C146       C    0.7876969472    0.9999940635    0.7500020583          0.1854
C147       C    0.7688470733    0.9811445291    0.7123025552          0.1854
H148       H    0.6843907825    0.9999938940    0.7500019977          0.1854
H149       H    0.7828026848    0.0327965986    0.8156079857          0.1854
H150       H    0.7828035570    0.9671900454    0.6843931912          0.1854
C151       C    0.9999923225    0.2122995176    0.2500062555          0.1854
C152       C    0.0188408868    0.2311491914    0.2123089558          0.1854
C153       C    0.0188409794    0.2688487552    0.2123088462          0.1854
C154       C    0.9999925076    0.2876986451    0.2500060364          0.1854
C155       C    0.9811439433    0.2688489713    0.2877033361          0.1854
C156       C    0.9811438508    0.2311494075    0.2877034457          0.1854
H157       H    0.0327963315    0.2171953768    0.1843978838          0.1854
H158       H    0.9999925760    0.3156061144    0.2500059553          0.1854
H159       H    0.9671883376    0.2171957529    0.3156145987          0.1854
O160       O    0.9999954284    0.0474961441    0.2884984558         -1.5411
O161       O    0.9999976895    0.9525016211    0.2884965224         -1.5509
O162       O    0.0474948912    0.9999956668    0.2884952830         -1.4371
O163       O    0.9524947657    0.9999986354    0.2884997033         -1.5212
O164       O    0.9524940019    0.9999990231    0.2115127096         -1.5167
O165       O    0.0474906650    0.9999995152    0.2115084151         -1.4292
O166       O    0.9999969257    0.9525020089    0.2115095287         -1.5543
O167       O    0.9999946646    0.0474965319    0.2115114621         -1.5421
Cu168     Cu    0.9999970452    0.9999962597    0.2955230109          1.0456
Cu169     Cu    0.9999953089    0.0000018933    0.2044849735          1.0433
C170       C    0.9999953022    0.0615029926    0.2500042294          0.1209
C171       C    0.9999970519    0.9384951604    0.2500037550          0.1123
C172       C    0.0614980368    0.0000001900    0.2500042459          0.0337
C173       C    0.9384943173    0.9999979630    0.2500037386          0.0965
C174       C    0.7311474991    0.9811453486    0.2877047073          0.1854
C175       C    0.7688454382    0.9811459858    0.2877038696          0.1854
C176       C    0.7876953314    0.9999956056    0.2500044900          0.1854
C177       C    0.7688472855    0.0188445883    0.2123059480          0.1854
C178       C    0.7311493463    0.0188439511    0.2123067856          0.1854
C179       C    0.7122994531    0.9999943312    0.2500061653          0.1854
H180       H    0.7828019076    0.9671915029    0.3156132625          0.1854
H181       H    0.7828011026    0.0327982029    0.1843986150          0.1854
H182       H    0.6843891667    0.9999951995    0.2500041054          0.1854
C183       C    0.0000000003    0.7876984153    0.2500044342          0.1854
C184       C    0.9811516400    0.7688487408    0.2123069123          0.1854
C185       C    0.9811516558    0.7311491771    0.2123066956          0.1854
C186       C    0.0000000319    0.7122992877    0.2500040008          0.1854
C187       C    0.0188483921    0.7311489622    0.2877015227          0.1854
C188       C    0.0188483763    0.7688485260    0.2877017394          0.1854
H189       H    0.9671962661    0.7828025550    0.1843957551          0.1854
H190       H    0.0000000436    0.6843918184    0.2500038404          0.1854
H191       H    0.0328037385    0.7828021811    0.3156130569          0.1854
C192       C    0.2688449184    0.0188530927    0.2877068690          0.1854
C193       C    0.2311469793    0.0188524681    0.2877059380          0.1854
C194       C    0.2122971078    0.0000029073    0.2500064588          0.1854
C195       C    0.2311451754    0.9811539712    0.2123079107          0.1854
C196       C    0.2688431145    0.9811545958    0.2123088417          0.1854
C197       C    0.2876929860    0.0000041566    0.2500083209          0.1854
H198       H    0.2171904938    0.0328069166    0.3156153353          0.1854
H199       H    0.2171913743    0.9672004002    0.1844005041          0.1854
H200       H    0.3156032725    0.0000032790    0.2500063301          0.1854
O201       O    0.0819994181    0.3704981458    0.9525081578         -1.5411
O202       O    0.1294981188    0.4179944514    0.0475016531         -1.5509
O203       O    0.1295015936    0.4179958749    0.9525110716         -1.4371
O204       O    0.0819959401    0.3704967273    0.0475056633         -1.5212
O205       O    0.1204886927    0.3320019179    0.0475066972         -1.5167
O206       O    0.1679908218    0.3794976671    0.9525121073         -1.4292
O207       O    0.1679908714    0.3794996420    0.0475026870         -1.5543
O208       O    0.1204921707    0.3320033364    0.9525091918         -1.5421
Cu209     Cu    0.1022375774    0.3977606813    0.0000069822          1.0456
Cu210     Cu    0.1477527120    0.3522371066    0.0000038627          1.0433
C211       C    0.0942430567    0.3442473420    0.9385015827          0.1209
C212       C    0.1557472327    0.4057504458    0.0615092622          0.1123
C213       C    0.1557466187    0.4057492715    0.9385041099          0.0337
C214       C    0.0942436708    0.3442485164    0.0615067350          0.0965
O215       O    0.5820008706    0.1294984189    0.0474993722         -1.5411
O216       O    0.6294987741    0.0820006614    0.9525065434         -1.5509
O217       O    0.6295016254    0.0819992336    0.0474971249         -1.4371
O218       O    0.5819980161    0.1294998417    0.9525018667         -1.5212
O219       O    0.6204919201    0.1679934711    0.9525013796         -1.5167
O220       O    0.6679920051    0.1204962616    0.0474966361         -1.4292
O221       O    0.6679926781    0.1204942909    0.9525060564         -1.5543
O222       O    0.6204947746    0.1679920483    0.0474988851         -1.5421
Cu223     Cu    0.6022385262    0.1022352651    0.0000008312          1.0456
Cu224     Cu    0.6477550224    0.1477574446    0.0000045974          1.0433
C225       C    0.5942452025    0.1557488467    0.0615061225          0.1209
C226       C    0.6557483462    0.0942438630    0.9384993060          0.1123
C227       C    0.6557469249    0.0942450320    0.0615044583          0.0337
C228       C    0.5942466238    0.1557476777    0.9385009703          0.0965
O229       O    0.8704968400    0.5820024367    0.0474995839         -1.5411
O230       O    0.9179947541    0.6294998768    0.9525064839         -1.5509
O231       O    0.9179960194    0.6295031620    0.0474970653         -1.4371
O232       O    0.8704955797    0.5819991483    0.9525020785         -1.5212
O233       O    0.8320018377    0.6204929684    0.9525010698         -1.5167
O234       O    0.8794988789    0.6679934578    0.0474960550         -1.4292
O235       O    0.8795010121    0.6679936969    0.9525054752         -1.5543
O236       O    0.8320030980    0.6204962568    0.0474985753         -1.5421
Cu237     Cu    0.8977600823    0.6022398683    0.0000009549          1.0456
Cu238     Cu    0.8522377697    0.6477562653    0.0000041043          1.0433
C239       C    0.8442463327    0.5942467949    0.0615061135          0.1209
C240       C    0.9057515193    0.6557493387    0.9384989457          0.1123
C241       C    0.9057501400    0.6557484792    0.0615040979          0.0337
C242       C    0.8442477121    0.5942476544    0.9385009612          0.0965
O243       O    0.3794971463    0.8320058923    0.9525055672         -1.5411
O244       O    0.3320013232    0.8795049868    0.0474991391         -1.5509
O245       O    0.3319995485    0.8795082344    0.9525085577         -1.4371
O246       O    0.3794989160    0.8320026415    0.0475030726         -1.5212
O247       O    0.4179939396    0.8704951512    0.0475036379         -1.5167
O248       O    0.3704979705    0.9179972197    0.9525091246         -1.4292
O249       O    0.3704963468    0.9179974965    0.0474997044         -1.5543
O250       O    0.4179921699    0.8704984020    0.9525061324         -1.5421
Cu251     Cu    0.3522348325    0.8522442707    0.0000044727          1.0456
Cu252     Cu    0.3977586605    0.8977591181    0.0000007989          1.0433
C253       C    0.4057479860    0.8442493514    0.9384987464          0.1209
C254       C    0.3442455070    0.9057540374    0.0615065252          0.1123
C255       C    0.3442462266    0.9057531291    0.9385013729          0.0337
C256       C    0.4057472664    0.8442502597    0.0615038986          0.0965
O257       O    0.1204946537    0.6679909338    0.4525070744         -1.5411
O258       O    0.1679906204    0.6204920940    0.5475008046         -1.5509
O259       O    0.1679925321    0.6204888722    0.4525102232         -1.4371
O260       O    0.1204927470    0.6679941588    0.5475045799         -1.5212
O261       O    0.0819979508    0.6295014216    0.5475049749         -1.5167
O262       O    0.1294943374    0.5819996595    0.4525106199         -1.4292
O263       O    0.1294958242    0.5819993569    0.5475011997         -1.5543
O264       O    0.0819998575    0.6294981966    0.4525074695         -1.5421
Cu265     Cu    0.1477570185    0.6477527035    0.5000060746          1.0456
Cu266     Cu    0.1022334594    0.6022375872    0.5000021995          1.0433
C267       C    0.0942439064    0.6557473234    0.4385001452          0.1209
C268       C    0.1557465715    0.5942429673    0.5615081289          0.1123
C269       C    0.1557460291    0.5942439090    0.4385029767          0.0337
C270       C    0.0942444488    0.6557463817    0.5615052974          0.0965
O271       O    0.4179944967    0.1294993323    0.4525067014         -1.5411
O272       O    0.3704954962    0.0820034502    0.5475002730         -1.5509
O273       O    0.3704920409    0.0820018835    0.4525096916         -1.4371
O274       O    0.4179979551    0.1295008940    0.5475042068         -1.5212
O275       O    0.3795054297    0.1679959305    0.5475050707         -1.5167
O276       O    0.3320030399    0.1205003185    0.4525105571         -1.4292
O277       O    0.3320029707    0.1204984867    0.5475011368         -1.5543
O278       O    0.3795019712    0.1679943688    0.4525075653         -1.5421
Cu279     Cu    0.3977561667    0.1022369879    0.5000055795          1.0456
Cu280     Cu    0.3522413007    0.1477608312    0.5000022588          1.0433
C281       C    0.4057510158    0.1557501872    0.4385000299          0.1209
C282       C    0.3442464516    0.0942476318    0.5615078083          0.1123
C283       C    0.3442470909    0.0942486207    0.4385026560          0.0337
C284       C    0.4057503764    0.1557491983    0.5615051822          0.0965
O285       O    0.8704968411    0.4179976731    0.4525064475         -1.5411
O286       O    0.9179932073    0.3704985655    0.5474995104         -1.5509
O287       O    0.9179945254    0.3704954175    0.4525089290         -1.4371
O288       O    0.8704955280    0.4180008243    0.5475039530         -1.5212
O289       O    0.8320005745    0.3795082445    0.5475047693         -1.5167
O290       O    0.8794961734    0.3320063621    0.4525097470         -1.4292
O291       O    0.8794982538    0.3320059857    0.5475003268         -1.5543
O292       O    0.8320018876    0.3795050933    0.4525072638         -1.5421
Cu293     Cu    0.8977594200    0.3977592946    0.5000050756          1.0456
Cu294     Cu    0.8522356748    0.3522443642    0.5000016987          1.0433
C295       C    0.8442459563    0.4057541809    0.4384998273          0.1209
C296       C    0.9057491386    0.3442494779    0.5615069470          0.1123
C297       C    0.9057478277    0.3442505151    0.4385017947          0.0337
C298       C    0.8442472671    0.4057531437    0.5615049795          0.0965
O299       O    0.5819986035    0.8704989132    0.4525049184         -1.5411
O300       O    0.6294980018    0.9179944486    0.5474984861         -1.5509
O301       O    0.6295010874    0.9179963339    0.4525079047         -1.4371
O302       O    0.5819955148    0.8704970327    0.5475024238         -1.5212
O303       O    0.6204880175    0.8320019735    0.5475027680         -1.5167
O304       O    0.6679900656    0.8794978763    0.4525082505         -1.4292
O305       O    0.6679905045    0.8794993893    0.5474988303         -1.5543
O306       O    0.6204911063    0.8320038539    0.4525052625         -1.5421
Cu307     Cu    0.6022371345    0.8977610863    0.5000038419          1.0456
Cu308     Cu    0.6477519736    0.8522372162    0.4999999067          1.0433
C309       C    0.5942420144    0.8442480980    0.4384979876          0.1209
C310       C    0.6557470937    0.9057502045    0.5615057611          0.1123
C311       C    0.6557459756    0.9057496282    0.4385006088          0.0337
C312       C    0.5942431325    0.8442486743    0.5615031399          0.0965
C783       C    0.2968593221    0.0738705263    0.3177739431          0.1854
C784       C    0.2876951054    0.0377016185    0.3254051034          0.1854
C785       C    0.2973817880    0.0203819490    0.3707359227          0.1854
C786       C    0.3162326873    0.0392311871    0.4084355819          0.1854
C787       C    0.3253969040    0.0754000949    0.4008044217          0.1854
C788       C    0.3157102214    0.0927197645    0.3554736023          0.1854
H789       H    0.2896886609    0.0866915804    0.2842173626          0.1854
H790       H    0.2905987739    0.9936093039    0.3763859150          0.1854
H791       H    0.3234033485    0.0264101330    0.4419921624          0.1854
H792       H    0.3224932355    0.1194924096    0.3498236100          0.1854
C773       C    0.2709213016    0.9541737920    0.1282642256          0.1854
C774       C    0.2876940939    0.9623040750    0.1746075001          0.1854
C775       C    0.3233171030    0.9515845995    0.1832509579          0.1854
C776       C    0.3421673199    0.9327348412    0.1455511413          0.1854
C777       C    0.3253945276    0.9246045582    0.0992078668          0.1854
C778       C    0.2897715185    0.9353240337    0.0905644090          0.1854
H779       H    0.2445510221    0.9621089882    0.1218658218          0.1854
H780       H    0.3357333916    0.9576022668    0.2175543586          0.1854
H781       H    0.3685375994    0.9247996450    0.1519495451          0.1854
H782       H    0.2773552299    0.9293063664    0.0562610083          0.1854
C763       C    0.0742177710    0.7195233316    0.3338074857          0.1854
C764       C    0.0376970540    0.7122987692    0.3254007449          0.1854
C765       C    0.0200254323    0.6862235804    0.3546940931          0.1854
C766       C    0.0388745276    0.6673729540    0.3923941821          0.1854
C767       C    0.0753952445    0.6745975164    0.4008009229          0.1854
C768       C    0.0930668663    0.7006727052    0.3715075747          0.1854
H769       H    0.0872993611    0.7388257441    0.3121227994          0.1854
H770       H    0.9929923681    0.6808751598    0.3484723805          0.1854
H771       H    0.0257929375    0.6480705415    0.4140788685          0.1854
H772       H    0.1200999304    0.7060211258    0.3777292873          0.1854
C753       C    0.9380297718    0.6563003499    0.1417754752          0.1854
C754       C    0.9246008704    0.6745990052    0.0992054504          0.1854
C755       C    0.9300219965    0.7117474834    0.0943353720          0.1854
C756       C    0.9488720239    0.7305973063    0.1320353183          0.1854
C757       C    0.9623009253    0.7122986510    0.1746053431          0.1854
C758       C    0.9568797993    0.6751501728    0.1794754216          0.1854
H759       H    0.9340167305    0.6288008270    0.1453805982          0.1854
H760       H    0.9200821429    0.7252932587    0.0628250368          0.1854
H761       H    0.9528850652    0.7580968292    0.1284301953          0.1854
H762       H    0.9668196528    0.6616043976    0.2109857567          0.1854
C743       C    0.6758121351    0.9541623236    0.3184829608          0.1854
C744       C    0.7122974911    0.9622967914    0.3254029369          0.1854
C745       C    0.7299320934    0.9515819562    0.3700226341          0.1854
C746       C    0.7110813396    0.9327326532    0.4077223552          0.1854
C747       C    0.6745959835    0.9245981854    0.4008023792          0.1854
C748       C    0.6569613813    0.9353130206    0.3561826820          0.1854
H749       H    0.6627579490    0.9620940847    0.2854527954          0.1854
H750       H    0.7569389823    0.9576027212    0.3751461878          0.1854
H751       H    0.7241355257    0.9248008921    0.4407525207          0.1854
H752       H    0.6299544923    0.9292922556    0.3510591283          0.1854
C733       C    0.7122987892    0.0753946394    0.1746037320          0.1854
C734       C    0.7122983293    0.0376946330    0.1746053804          0.1854
C735       C    0.6934476757    0.0188444851    0.1369072704          0.1854
C736       C    0.6745974821    0.0376943437    0.0992075119          0.1854
C737       C    0.6745979420    0.0753943501    0.0992058635          0.1854
C738       C    0.6934485955    0.0942444979    0.1369039735          0.1854
H739       H    0.7262531691    0.0893486449    0.2025101251          0.1854
H740       H    0.6934467388    0.9909384778    0.1369072976          0.1854
H741       H    0.6606431021    0.0237403381    0.0713011188          0.1854
H742       H    0.6934495325    0.1221505052    0.1369039463          0.1854
C723       C    0.1180486585    0.9690277355    0.2354041352          0.1854
C724       C    0.0991975131    0.0000008693    0.2500047991          0.1854
C725       C    0.1180464269    0.0309746824    0.2646060163          0.1854
C726       C    0.1557464861    0.0309753618    0.2646065695          0.1854
C727       C    0.1745976315    0.0000022280    0.2500059056          0.1854
C728       C    0.1557487176    0.9690284149    0.2354046884          0.1854
H729       H    0.1040955664    0.9460990687    0.2245954419          0.1854
H730       H    0.1040934726    0.0539018662    0.2754138379          0.1854
H731       H    0.1696995781    0.0539040286    0.2754152628          0.1854
H732       H    0.1697016719    0.9461012311    0.2245968668          0.1854
C713       C    0.0326391097    0.8819469722    0.2489818789          0.1854
C714       C    0.9999977890    0.9007967942    0.2500039248          0.1854
C715       C    0.9673572053    0.8819466099    0.2510261405          0.1854
C716       C    0.9673579424    0.8442466035    0.2510263103          0.1854
C717       C    0.9999992632    0.8253967814    0.2500042644          0.1854
C718       C    0.0326398468    0.8442469658    0.2489820487          0.1854
H719       H    0.0568016197    0.8959010047    0.2482251738          0.1854
H720       H    0.9431951827    0.8958985847    0.2517826875          0.1854
H721       H    0.9431954325    0.8302925710    0.2517830154          0.1854
H722       H    0.0568018694    0.8302949910    0.2482255016          0.1854
C703       C    0.8819445478    0.9993754379    0.2961678784          0.1854
C704       C    0.9007948836    0.9999973737    0.2500039264          0.1854
C705       C    0.8819451602    0.0006187200    0.2038401623          0.1854
C706       C    0.8442451010    0.0006181307    0.2038403502          0.1854
C707       C    0.8253947652    0.9999961950    0.2500043021          0.1854
C708       C    0.8442444886    0.9993748486    0.2961680663          0.1854
H709       H    0.8958982392    0.9989154802    0.3303410544          0.1854
H710       H    0.8958975152    0.0010790943    0.1696683082          0.1854
H711       H    0.8302914096    0.0010780884    0.1696671741          0.1854
H712       H    0.8302921336    0.9989144743    0.3303399204          0.1854
C693       C    0.9262119023    0.2971241659    0.3175966740          0.1854
C694       C    0.9622951050    0.2876991666    0.3254025695          0.1854
C695       C    0.9795290881    0.2971247440    0.3709084609          0.1854
C696       C    0.9606798687    0.3159753205    0.4086084568          0.1854
C697       C    0.9245966660    0.3254003198    0.4008025613          0.1854
C698       C    0.9073626828    0.3159747425    0.3552966699          0.1854
H699       H    0.9134542784    0.2901467905    0.2839104947          0.1854
H700       H    0.0062382919    0.2901486913    0.3766877972          0.1854
H701       H    0.9734374926    0.3229526960    0.4422946362          0.1854
H702       H    0.8806534791    0.3229507951    0.3495173337          0.1854
C683       C    0.0204594772    0.2971248614    0.1290999981          0.1854
C684       C    0.0376919930    0.2876990362    0.1746076369          0.1854
C685       C    0.0737748409    0.2971228106    0.1824154293          0.1854
C686       C    0.0926251730    0.3159724102    0.1447155830          0.1854
C687       C    0.0753926571    0.3253982353    0.0992079443          0.1854
C688       C    0.0393098093    0.3159744610    0.0914001518          0.1854
H689       H    0.9937487976    0.2901488206    0.1233202037          0.1854
H690       H    0.0865314297    0.2901461466    0.2161002689          0.1854
H691       H    0.1193358526    0.3229484509    0.1504953774          0.1854
H692       H    0.0265532204    0.3229511250    0.0577153123          0.1854
C673       C    0.0143599140    0.1557508157    0.2914674133          0.1854
C674       C    0.9999930674    0.1746012615    0.2500057490          0.1854
C675       C    0.9856269659    0.1557517009    0.2085435781          0.1854
C676       C    0.9856277108    0.1180516945    0.2085430716          0.1854
C677       C    0.9999945573    0.0992012487    0.2500047359          0.1854
C678       C    0.0143606589    0.1180508093    0.2914669068          0.1854
H679       H    0.0249945606    0.1697043865    0.3221601892          0.1854
H680       H    0.9749922225    0.1697041374    0.1778524894          0.1854
H681       H    0.9749930642    0.1040981237    0.1778502957          0.1854
H682       H    0.0249954023    0.1040983728    0.3221579956          0.1854
C663       C    0.7290954566    0.9541014525    0.6283000196          0.1854
C664       C    0.7122990977    0.9622960084    0.6746035539          0.1854
C665       C    0.6766517550    0.9516416472    0.6832071924          0.1854
C666       C    0.6578007712    0.9327927302    0.6455072966          0.1854
C667       C    0.6745971301    0.9245981743    0.5992037623          0.1854
C668       C    0.7102444728    0.9352525355    0.5906001238          0.1854
H669       H    0.7554837493    0.9619884472    0.6219310924          0.1854
H670       H    0.6642180217    0.9577068912    0.7174811761          0.1854
H671       H    0.6314124785    0.9249057355    0.6518762237          0.1854
H672       H    0.7226782062    0.9291872915    0.5563261400          0.1854
C653       C    0.6758640127    0.0302330042    0.8341245253          0.1854
C654       C    0.7123000099    0.0376931217    0.8254000650          0.1854
C655       C    0.7298856417    0.0640032971    0.8543749733          0.1854
C656       C    0.7110352763    0.0828533551    0.8920743420          0.1854
C657       C    0.6745992791    0.0753932376    0.9007988023          0.1854
C658       C    0.6570136473    0.0490830621    0.8718238940          0.1854
H659       H    0.6628460775    0.0107566406    0.8126755672          0.1854
H660       H    0.7568559938    0.0695260822    0.8479180757          0.1854
H661       H    0.7240532115    0.1023297187    0.9135233001          0.1854
H662       H    0.6300432952    0.0435602770    0.8782807915          0.1854
C643       C    0.9283719879    0.3022671695    0.6853952806          0.1854
C644       C    0.9622954871    0.2876977611    0.6746043883          0.1854
C645       C    0.9773698764    0.2919792522    0.6261136947          0.1854
C646       C    0.9585207664    0.3108301516    0.5884138934          0.1854
C647       C    0.9245972672    0.3253995599    0.5992047857          0.1854
C648       C    0.9095228779    0.3211180689    0.6476954793          0.1854
H649       H    0.9172130244    0.2990977540    0.7212909888          0.1854
H650       H    0.0024804070    0.2811951634    0.6181247800          0.1854
H651       H    0.9696797299    0.3139995671    0.5525181851          0.1854
H652       H    0.8844123473    0.3319021576    0.6556843940          0.1854
C633       C    0.0734404761    0.2786140016    0.8364369481          0.1854
C634       C    0.0376926465    0.2876965288    0.8254011805          0.1854
C635       C    0.0207947673    0.3156291408    0.8520651744          0.1854
C636       C    0.0396447177    0.3344792256    0.8897649358          0.1854
C637       C    0.0753925474    0.3253966984    0.9008007034          0.1854
C638       C    0.0922904266    0.2974640864    0.8741367096          0.1854
H639       H    0.0859492958    0.2579366135    0.8166986669          0.1854
H640       H    0.9943338160    0.3223528792    0.8438973823          0.1854
H641       H    0.0271358981    0.3551566137    0.9095032170          0.1854
H642       H    0.1187513778    0.2907403480    0.8823045017          0.1854
C623       C    0.3242453294    0.0887077133    0.6490623837          0.1854
C624       C    0.3253966256    0.0753995039    0.5992057813          0.1854
C625       C    0.3076971328    0.0432422039    0.5870490773          0.1854
C626       C    0.2888463440    0.0243931133    0.6247489758          0.1854
C627       C    0.2876950479    0.0377013226    0.6746055782          0.1854
C628       C    0.3053945406    0.0698586226    0.6867622822          0.1854
H629       H    0.3373475513    0.1125124678    0.6580615023          0.1794
H630       H    0.3085487580    0.0333904969    0.5501450126          0.1854
H631       H    0.2757441222    0.0005883587    0.6157498572          0.1854
H632       H    0.3045429155    0.0797103296    0.7236663469          0.1854
C613       C    0.3253933001    0.9620555650    0.8251551297          0.1854
C614       C    0.2876944631    0.9623039040    0.8254020401          0.1854
C615       C    0.2688460107    0.9437021880    0.8633483215          0.1854
C616       C    0.2876963953    0.9248521330    0.9010476926          0.1854
C617       C    0.3253952322    0.9246037939    0.9008007823          0.1854
C618       C    0.3442436847    0.9432055099    0.8628545008          0.1854
H619       H    0.3393460506    0.9758256664    0.7970650252          0.1854
H620       H    0.2409408690    0.9438854190    0.8635322846          0.1854
H621       H    0.2737436448    0.9110820315    0.9291377971          0.1854
H622       H    0.3721488263    0.9430222789    0.8626705377          0.1854
C603       C    0.8819455843    0.0088999634    0.7055801642          0.1854
C604       C    0.9007962249    0.9999963529    0.7500021918          0.1854
C605       C    0.8819468062    0.9910919793    0.7944241750          0.1854
C606       C    0.8442467470    0.9910912162    0.7944241305          0.1854
C607       C    0.8253961065    0.9999948266    0.7500021028          0.1854
C608       C    0.8442455251    0.0088992002    0.7055801196          0.1854
H609       H    0.8958990500    0.0154915127    0.6726963584          0.1854
H610       H    0.8958993869    0.9845012767    0.8273066078          0.1854
H611       H    0.8302932813    0.9844996669    0.8273079362          0.1854
H612       H    0.8302929444    0.0154899028    0.6726976868          0.1854
C593       C    0.9673587246    0.1180510611    0.7487324374          0.1854
C594       C    0.9999956322    0.0992011416    0.7500026549          0.1854
C595       C    0.0326319190    0.1180512285    0.7512728166          0.1854
C596       C    0.0326312980    0.1557512349    0.7512727607          0.1854
C597       C    0.9999943904    0.1746011544    0.7500025432          0.1854
C598       C    0.9673581036    0.1557510675    0.7487323816          0.1854
H599       H    0.9431993954    0.1040971006    0.7477921879          0.1854
H600       H    0.0567906749    0.1040991817    0.7522130672          0.1854
H601       H    0.0567906272    0.1697051954    0.7522130103          0.1854
H602       H    0.9431993477    0.1697031143    0.7477921309          0.1854
C583       C    0.1180494210    0.9676014417    0.7443053849          0.1854
C584       C    0.0991982109    0.0000003959    0.7500029832          0.1854
C585       C    0.1180470600    0.0324001715    0.7557008643          0.1854
C586       C    0.1557471192    0.0324009928    0.7557011472          0.1854
C587       C    0.1745983293    0.0000020386    0.7500035490          0.1854
C588       C    0.1557494802    0.9676022631    0.7443056678          0.1854
H589       H    0.1040963768    0.9436171923    0.7400874729          0.1854
H590       H    0.1040940578    0.0563827876    0.7599183867          0.1854
H591       H    0.1697001633    0.0563852423    0.7599190593          0.1854
H592       H    0.1697024824    0.9436196470    0.7400881455          0.1854
C573       C    0.0453094973    0.6756660719    0.6811481480          0.1854
C574       C    0.0376980267    0.7122985926    0.6746037547          0.1854
C575       C    0.0489355540    0.7300801859    0.6303594946          0.1854
C576       C    0.0677845518    0.7112292584    0.5926596279          0.1854
C577       C    0.0753960223    0.6745967377    0.5992040213          0.1854
C578       C    0.0641584951    0.6568151445    0.6434482814          0.1854
H579       H    0.0369908083    0.6625030743    0.7139003925          0.1854
H580       H    0.0433019262    0.7571960102    0.6255139577          0.1854
H581       H    0.0761032408    0.7243922560    0.5599073835          0.1854
H582       H    0.0697921229    0.6296993201    0.6482938183          0.1854
C563       C    0.9639389969    0.6746535853    0.8270908308          0.1854
C564       C    0.9623021785    0.7122990178    0.8253980506          0.1854
C565       C    0.9418152987    0.7310947156    0.8614052522          0.1854
C566       C    0.9229652372    0.7122449809    0.8991052339          0.1854
C567       C    0.9246020557    0.6745995483    0.9007980141          0.1854
C568       C    0.9450889355    0.6558038505    0.8647908126          0.1854
H569       H    0.9791046093    0.6607398869    0.8004361491          0.1854
H570       H    0.9406030831    0.7589603259    0.8601534018          0.1854
H571       H    0.9077996249    0.7261586792    0.9257599156          0.1854
H572       H    0.9463011510    0.6279382403    0.8660426630          0.1854
C553       C    0.0041205227    0.8442473651    0.7041974732          0.1854
C554       C    0.0000005057    0.8253964251    0.7500001865          0.1854
C555       C    0.9958797315    0.8442454915    0.7958035796          0.1854
C556       C    0.9958789744    0.8819454979    0.7958042594          0.1854
C557       C    0.9999989915    0.9007964379    0.7500015462          0.1854
C558       C    0.0041197657    0.8819473715    0.7041981531          0.1854
H559       H    0.0071709660    0.8302941601    0.6702910653          0.1854
H560       H    0.9928299791    0.8302926892    0.8297080347          0.1854
H561       H    0.9928285312    0.8958987029    0.8297106673          0.1854
H562       H    0.0071695181    0.8959001738    0.6702936979          0.1854
C543       C    0.8198560602    0.5553976966    0.8132461172          0.1854
C544       C    0.7876970271    0.5376999970    0.8254017593          0.1854
C545       C    0.7743883760    0.5388516704    0.8752574430          0.1854
C546       C    0.7932387582    0.5577010433    0.9129574846          0.1854
C547       C    0.8253977914    0.5753987429    0.9008018425          0.1854
C548       C    0.8387064424    0.5742470695    0.8509461588          0.1854
H549       H    0.8297079188    0.5545451592    0.7763399617          0.1854
H550       H    0.7505839528    0.5257519325    0.8842565838          0.1854
H551       H    0.7833868997    0.5585535808    0.9498636400          0.1854
H552       H    0.8625108657    0.5873468074    0.8419470179          0.1854
C533       C    0.7699148748    0.4365543224    0.6448731715          0.1854
C534       C    0.7876974342    0.4623036566    0.6746065843          0.1854
C535       C    0.8243297234    0.4692030344    0.6666398913          0.1854
C536       C    0.8431794532    0.4503530779    0.6289397855          0.1854
C537       C    0.8253968937    0.4246037437    0.5992063727          0.1854
C538       C    0.7887646046    0.4177043660    0.6071730657          0.1854
H539       H    0.7427974659    0.4314469908    0.6507705936          0.1854
H540       H    0.8374934700    0.4882628184    0.6886482056          0.1854
H541       H    0.8702968620    0.4554604095    0.6230423634          0.1854
H542       H    0.7756008580    0.3986445820    0.5851647513          0.1854
C523       C    0.5751377127    0.2085867783    0.8219550084          0.1854
C524       C    0.5377002094    0.2122996107    0.8254024986          0.1854
C525       C    0.5191117287    0.1971615811    0.8665499148          0.1854
C526       C    0.5379607512    0.1783107190    0.9042498408          0.1854
C527       C    0.5753982545    0.1745978866    0.9008023507          0.1854
C528       C    0.5939867352    0.1897359162    0.8596549345          0.1854
H529       H    0.5888980167    0.2197928522    0.7914952328          0.1854
H530       H    0.4914000335    0.1999093274    0.8691030369          0.1854
H531       H    0.5242004472    0.1671046451    0.9347096165          0.1854
H532       H    0.6216984304    0.1869881699    0.8571018123          0.1854
C513       C    0.4622589549    0.1731519314    0.6006976071          0.1854
C514       C    0.4246014878    0.1746002422    0.5992062450          0.1854
C515       C    0.4057942768    0.1948987415    0.6354142350          0.1854
C516       C    0.4246445329    0.2137489300    0.6731135872          0.1854
C517       C    0.4623019999    0.2123006192    0.6746049493          0.1854
C518       C    0.4811092109    0.1920021199    0.6383969593          0.1854
H519       H    0.4761811760    0.1581257696    0.5738942898          0.1854
H520       H    0.3779197584    0.1959714183    0.6343114800          0.1854
H521       H    0.4107223117    0.2287750918    0.6999169045          0.1854
H522       H    0.5089837294    0.1909294431    0.6394997143          0.1854
C503       C    0.1986849408    0.4279035247    0.8151023069          0.1854
C504       C    0.2122976300    0.4622967572    0.8254067027          0.1854
C505       C    0.2070596964    0.4778405420    0.8734108059          0.1854
C506       C    0.1882090735    0.4589910943    0.9111105132          0.1854
C507       C    0.1745963842    0.4245978618    0.9008061174          0.1854
C508       C    0.1798343179    0.4090540771    0.8528020142          0.1854
H509       H    0.2025623722    0.4163970867    0.7795668019          0.1854
H510       H    0.2171355948    0.5032987823    0.8810396022          0.1854
H511       H    0.1843316421    0.4704975323    0.9466460181          0.1854
H512       H    0.1697584194    0.3835958367    0.8451732178          0.1854
C493       C    0.2256059962    0.5388455292    0.6247526605          0.1854
C494       C    0.2122980245    0.5376938504    0.6746093756          0.1854
C495       C    0.1801397671    0.5553916786    0.6867660725          0.1854
C496       C    0.1612894815    0.5742411855    0.6490660543          0.1854
C497       C    0.1745974532    0.5753928643    0.5992093393          0.1854
C498       C    0.2067557105    0.5576950362    0.5870526424          0.1854
H499       H    0.2494114594    0.5257445396    0.6157535473          0.1854
H500       H    0.1702882360    0.5545397701    0.7236702205          0.1854
H501       H    0.1374840183    0.5873421751    0.6580651676          0.1854
H502       H    0.2166072416    0.5585469446    0.5501484944          0.1854
C483       C    0.6180503949    0.4941602172    0.7045762894          0.1854
C484       C    0.5991993926    0.5000002498    0.7500034060          0.1854
C485       C    0.6180484495    0.5058410455    0.7954312213          0.1854
C486       C    0.6557485087    0.5058418087    0.7954319200          0.1854
C487       C    0.6745995110    0.5000017761    0.7500048034          0.1854
C488       C    0.6557504541    0.4941609804    0.7045769881          0.1854
H489       H    0.6040971969    0.4898365113    0.6709479066          0.1854
H490       H    0.6040956011    0.5101640017    0.8290576492          0.1854
H491       H    0.6697017066    0.5101655146    0.8290603028          0.1854
H492       H    0.6697033024    0.4898380242    0.6709505601          0.1854
C473       C    0.4679269681    0.3819460582    0.7413668536          0.1854
C474       C    0.4999992763    0.4007971726    0.7500034155          0.1854
C475       C    0.5320723822    0.3819482806    0.7586399936          0.1854
C476       C    0.5320731799    0.3442482742    0.7586400097          0.1854
C477       C    0.5000008718    0.3253971598    0.7500034478          0.1854
C478       C    0.4679277658    0.3442460518    0.7413668697          0.1854
H479       H    0.4441845391    0.3958991340    0.7349735425          0.1854
H480       H    0.5558132058    0.3959012119    0.7650330194          0.1854
H481       H    0.5558156090    0.3302951983    0.7650333208          0.1854
H482       H    0.4441869423    0.3302931204    0.7349738439          0.1854
C463       C    0.3819432790    0.5326457189    0.7500052255          0.1854
C464       C    0.4007942092    0.4999970686    0.7500046891          0.1854
C465       C    0.3819450802    0.4673479035    0.7500052255          0.1854
C466       C    0.3442450210    0.4673473887    0.7500062983          0.1854
C467       C    0.3253940908    0.4999960390    0.7500068348          0.1854
C468       C    0.3442432198    0.5326452041    0.7500062984          0.1854
H469       H    0.3958965303    0.5568145814    0.7500048284          0.1854
H470       H    0.3958978752    0.4431804553    0.7500048284          0.1854
H471       H    0.3302917696    0.4431785262    0.7500066954          0.1854
H472       H    0.3302904248    0.5568126523    0.7500066954          0.1854
C453       C    0.4570535979    0.7721538391    0.8734047359          0.1854
C454       C    0.4622942722    0.7876974509    0.8254004263          0.1854
C455       C    0.4486859454    0.8220919353    0.8150960348          0.1854
C456       C    0.4298369443    0.8409428079    0.8527959531          0.1854
C457       C    0.4245962700    0.8253991961    0.9008002627          0.1854
C458       C    0.4382045968    0.7910047117    0.9111046541          0.1854
H459       H    0.4671272944    0.7466929871    0.8810326620          0.1854
H460       H    0.4525646432    0.8335983500    0.7795630894          0.1854
H461       H    0.4197632478    0.8664036600    0.8451680269          0.1854
H462       H    0.4343258990    0.7794982970    0.9466375995          0.1854
C443       C    0.5208633371    0.8157704305    0.6481474319          0.1854
C444       C    0.5376920789    0.7876966921    0.6746029026          0.1854
C445       C    0.5733708831    0.7784733257    0.6633590298          0.1854
C446       C    0.5922209456    0.7973236977    0.6256596864          0.1854
C447       C    0.5753922038    0.8253974361    0.5992042156          0.1854
C448       C    0.5397133996    0.8346208025    0.6104480884          0.1854
H449       H    0.4944517547    0.8225981173    0.6564708182          0.1854
H450       H    0.5858285871    0.7576929524    0.6829409194          0.1854
H451       H    0.6186325280    0.7904960109    0.6173363000          0.1854
H452       H    0.5272556956    0.8554011757    0.5908661989          0.1854
C433       C    0.4965324560    0.6557496114    0.7959141027          0.1854
C434       C    0.4999936185    0.6745999333    0.7500019603          0.1854
C435       C    0.5034555770    0.6557502489    0.7040901391          0.1854
C436       C    0.5034563730    0.6180502425    0.7040904604          0.1854
C437       C    0.4999952106    0.5991999205    0.7500026029          0.1854
C438       C    0.4965332520    0.6180496050    0.7959144240          0.1854
H439       H    0.4939697075    0.6697032739    0.8299007755          0.1854
H440       H    0.5060176267    0.6697025937    0.6701046815          0.1854
H441       H    0.5060191215    0.6040965800    0.6701037876          0.1854
H442       H    0.4939712023    0.6040972602    0.8298998817          0.1854
C423       C    0.1840228201    0.4606836534    0.0914043255          0.1854
C424       C    0.1745977439    0.4246005684    0.0992106004          0.1854
C425       C    0.1840226352    0.4073670622    0.1447171259          0.1854
C426       C    0.2028726025    0.4262166410    0.1824173764          0.1854
C427       C    0.2122976787    0.4622997260    0.1746111015          0.1854
C428       C    0.2028727874    0.4795332322    0.1291045761          0.1854
H429       H    0.1770459526    0.4734409243    0.0577176768          0.1854
H430       H    0.1770465256    0.3806579456    0.1504967430          0.1854
H431       H    0.2098494700    0.4134593702    0.2161040251          0.1854
H432       H    0.2098488970    0.5062423489    0.1233249590          0.1854
C413       C    0.1571958129    0.5654498886    0.3556470315          0.1854
C414       C    0.1745963412    0.5753948475    0.4008044839          0.1854
C415       C    0.2108476629    0.5664902636    0.4082624807          0.1854
C416       C    0.2296984564    0.5476407207    0.3705630251          0.1854
C417       C    0.2122979281    0.5376957618    0.3254055727          0.1854
C418       C    0.1760466063    0.5466003457    0.3179475759          0.1854
H419       H    0.1303604188    0.5720415936    0.3501261767          0.1854
H420       H    0.2237286194    0.5738512050    0.4416881025          0.1854
H421       H    0.2565338504    0.5410490157    0.3760838799          0.1854
H422       H    0.1631656499    0.5392394043    0.2845219541          0.1854
C403       C    0.4360547772    0.7700881668    0.1455273788          0.1854
C404       C    0.4622944120    0.7876987822    0.1746008977          0.1854
C405       C    0.4696846808    0.8241602075    0.1659747820          0.1854
C406       C    0.4508353148    0.8430110175    0.1282751473          0.1854
C407       C    0.4245956800    0.8254004022    0.0992016284          0.1854
C408       C    0.4172054112    0.7889389768    0.1078277442          0.1854
H409       H    0.4305840588    0.7430972416    0.1519129450          0.1854
H410       H    0.4891073991    0.8371966763    0.1874946244          0.1854
H411       H    0.4563060332    0.8700019428    0.1218895811          0.1854
H412       H    0.3977826929    0.7759025080    0.0863079018          0.1854
C393       C    0.5897120070    0.8225292554    0.3516448317          0.1854
C394       C    0.5753916483    0.8253975912    0.4007971464          0.1854
C395       C    0.5422214028    0.8094158996    0.4122495785          0.1854
C396       C    0.5233715160    0.7905658722    0.3745496960          0.1854
C397       C    0.5376918748    0.7876975364    0.3253973813          0.1854
C398       C    0.5708621203    0.8036792280    0.3139449492          0.1854
H399       H    0.6142666044    0.8343598583    0.3431670572          0.1854
H400       H    0.5316204743    0.8115385258    0.4486323096          0.1854
H401       H    0.4988169187    0.7787352693    0.3830274705          0.1854
H402       H    0.5814630487    0.8015566018    0.2775622181          0.1854
C383       C    0.7726203260    0.5419843389    0.1261135557          0.1854
C384       C    0.7876945450    0.5376998457    0.1746045301          0.1854
C385       C    0.8216195416    0.5522645173    0.1853956689          0.1854
C386       C    0.8404703192    0.5711136821    0.1476958333          0.1854
C387       C    0.8253961002    0.5753981752    0.0992048590          0.1854
C388       C    0.7914711036    0.5608335036    0.0884137202          0.1854
H389       H    0.7475070168    0.5312026989    0.1181253101          0.1854
H390       H    0.8327784985    0.5490936116    0.2212888573          0.1854
H391       H    0.8655836284    0.5818953220    0.1556840789          0.1854
H392       H    0.7803121466    0.5640044093    0.0525205318          0.1854
C373       C    0.7741864264    0.4608266596    0.3751305937          0.1854
C374       C    0.7876949003    0.4623041166    0.3253990578          0.1854
C375       C    0.8200535321    0.4449317891    0.3133673901          0.1854
C376       C    0.8389036899    0.4260820046    0.3510672584          0.1854
C377       C    0.8253952161    0.4246045476    0.4007987944          0.1854
C378       C    0.7930365843    0.4419768752    0.4128304620          0.1854
H379       H    0.7502326341    0.4736866943    0.3840371529          0.1854
H380       H    0.8300534805    0.4460248477    0.2765559032          0.1854
H381       H    0.8628574823    0.4132219699    0.3421606992          0.1854
H382       H    0.7830366359    0.4408838166    0.4496419490          0.1854
C363       C    0.3819466195    0.4999989061    0.2961772502          0.1854
C364       C    0.4007960374    0.4999989500    0.2500041706          0.1854
C365       C    0.3819453961    0.4999989061    0.2038327939          0.1854
C366       C    0.3442453369    0.4999988183    0.2038344968          0.1854
C367       C    0.3253959190    0.4999987744    0.2500075765          0.1854
C368       C    0.3442465603    0.4999988183    0.2961789532          0.1854
H369       H    0.3959009903    0.4999989386    0.3303560615          0.1854
H370       H    0.3958970716    0.4999989385    0.1696541832          0.1854
H371       H    0.3302909661    0.4999987858    0.1696556855          0.1854
H372       H    0.3302948847    0.4999987858    0.3303575638          0.1854
C353       C    0.4673454827    0.6180523032    0.2500007385          0.1854
C354       C    0.4999947230    0.5992023420    0.2500005753          0.1854
C355       C    0.5326433896    0.6180523872    0.2499998734          0.1854
C356       C    0.5326428160    0.6557523936    0.2499993348          0.1854
C357       C    0.4999935757    0.6746023548    0.2499994981          0.1854
C358       C    0.4673449091    0.6557523096    0.2500002000          0.1854
H359       H    0.4431769892    0.6040983736    0.2500012581          0.1854
H360       H    0.5568112744    0.6041003094    0.2499997525          0.1854
H361       H    0.5568113095    0.6697063231    0.2499988153          0.1854
H362       H    0.4431770243    0.6697043873    0.2500003208          0.1854
C343       C    0.6180469248    0.4953263032    0.2043038306          0.1854
C344       C    0.5991963645    0.5000008799    0.2500002694          0.1854
C345       C    0.6180458634    0.5046761084    0.2956967361          0.1854
C346       C    0.6557459226    0.5046767601    0.2956967639          0.1854
C347       C    0.6745964829    0.5000021833    0.2500003250          0.1854
C348       C    0.6557469840    0.4953269549    0.2043038584          0.1854
H349       H    0.6040933996    0.4918654198    0.1704765761          0.1854
H350       H    0.6040933422    0.5081363614    0.3295225239          0.1854
H351       H    0.6696994478    0.5081376435    0.3295240184          0.1854
H352       H    0.6696995051    0.4918667018    0.1704780706          0.1854
C333       C    0.5900268332    0.1780319697    0.1481006043          0.1854
C334       C    0.5753967991    0.1745986721    0.0992037651          0.1854
C335       C    0.5419173815    0.1900161801    0.0880065288          0.1854
C336       C    0.5230679980    0.2088669856    0.1257061317          0.1854
C337       C    0.5376980321    0.2123002833    0.1746029708          0.1854
C338       C    0.5711774497    0.1968827753    0.1858002071          0.1854
H339       H    0.6148102982    0.1666190092    0.1563894675          0.1854
H340       H    0.5310872228    0.1874753533    0.0518129078          0.1854
H341       H    0.4982845331    0.2202799461    0.1174172684          0.1854
H342       H    0.5820076085    0.1994236020    0.2219938281          0.1854
C323       C    0.4751443089    0.1790262335    0.3426681356          0.1854
C324       C    0.4623007680    0.2123012895    0.3253994619          0.1854
C325       C    0.4306074838    0.2267261521    0.3458306295          0.1854
C326       C    0.4117577405    0.2078759587    0.3835304707          0.1854
C327       C    0.4246012813    0.1746009028    0.4007991444          0.1854
C328       C    0.4562945655    0.1601760402    0.3803679769          0.1854
H329       H    0.4986055713    0.1683480885    0.3275437649          0.1854
H330       H    0.4210997375    0.2513566867    0.3330490652          0.1854
H331       H    0.3882964781    0.2185541038    0.3986548415          0.1854
H332       H    0.4658023118    0.1355455055    0.3931495412          0.1854
C313       C    0.4684668550    0.3819459280    0.2380225126          0.1854
C314       C    0.4999976263    0.4007968080    0.2500013991          0.1854
C315       C    0.5315289681    0.3819476817    0.2619800894          0.1854
C316       C    0.5315295386    0.3442476753    0.2619798931          0.1854
C317       C    0.4999987672    0.3253967952    0.2500010065          0.1854
C318       C    0.4684674254    0.3442459216    0.2380223163          0.1854
H319       H    0.4451254721    0.3958991774    0.2291551704          0.1854
H320       H    0.5548689309    0.3959004396    0.2708471977          0.1854
H321       H    0.5548709215    0.3302944259    0.2708472352          0.1854
H322       H    0.4451274627    0.3302931637    0.2291552079          0.1854
loop_
_geom_bond_atom_site_label_1
_geom_bond_atom_site_label_2
_geom_bond_distance
_geom_bond_site_symmetry_2
_ccdc_geom_bond_type
C1           C2 1.540       .   A
C1           C6 1.540       .   A
C1         C337 1.540       .   S
C2           C3 1.540       .   A
C2           H7 1.140       .   S
C3           C4 1.540       .   A
C3         C317 1.540       .   S
C4           C5 1.540       .   A
C4           H8 1.140       .   S
C5           C6 1.540       .   A
C5         C324 1.540       .   S
C6           H9 1.140       .   S
O10        Cu18 1.951       .   S
O10         C20 1.250       .   A
O11        Cu18 1.951       .   S
O11         C21 1.250       .   A
O12        Cu18 1.951       .   S
O12         C22 1.250       .   A
O13        Cu18 1.951       .   S
O13         C23 1.250       .   A
O14        Cu19 1.951       .   S
O14         C23 1.250       .   A
O15        Cu19 1.951       .   S
O15         C22 1.251       .   A
O16        Cu19 1.951       .   S
O16         C21 1.250       .   A
O17        Cu19 1.951       .   S
O17         C20 1.250       .   A
Cu18       Cu19 2.630       .   S
C20        C314 1.540       .   S
C21        C354 1.540       .   S
C22        C344 1.540       .   S
C23        C364 1.540       .   S
C24         C25 1.540       .   A
C24         C29 1.540       .   A
C24        C347 1.540       .   S
C25         C26 1.540       .   A
C25         H30 1.140       .   S
C26         C27 1.540       .   A
C26        C374 1.540       .   S
C27         C28 1.540       .   A
C27         H31 1.140       .   S
C28         C29 1.540       .   A
C28        C384 1.540       .   S
C29         H32 1.140       .   S
C33         C34 1.540       .   A
C33         C38 1.540       .   A
C33        C404 1.540       .   S
C34         C35 1.540       .   A
C34         H39 1.140       .   S
C35         C36 1.540       .   A
C35        C357 1.540       .   S
C36         C37 1.540       .   A
C36         H40 1.140       .   S
C37         C38 1.540       .   A
C37        C397 1.540       .   S
C38         H41 1.140       .   S
C42         C43 1.540       .   A
C42         C47 1.540       .   A
C42        C367 1.540       .   S
C43         C44 1.540       .   A
C43         H48 1.140       .   S
C44         C45 1.540       .   A
C44        C417 1.540       .   S
C45         C46 1.540       .   A
C45         H49 1.140       .   S
C46         C47 1.540       .   A
C46        C427 1.540       .   S
C47         H50 1.140       .   S
C51         C52 1.540       .   A
C51         C56 1.540       .   A
C51        C454 1.540       .   S
C52         C53 1.540       .   A
C52         H57 1.140       .   S
C53         C54 1.540       .   A
C53        C434 1.540       .   S
C54         C55 1.540       .   A
C54         H58 1.140       .   S
C55         C56 1.540       .   A
C55        C444 1.540       .   S
C56         H59 1.140       .   S
O60        Cu68 1.951       .   S
O60         C70 1.250       .   A
O61        Cu68 1.951       .   S
O61         C71 1.250       .   A
O62        Cu68 1.951       .   S
O62         C72 1.250       .   A
O63        Cu68 1.951       .   S
O63         C73 1.250       .   A
O64        Cu69 1.951       .   S
O64         C73 1.250       .   A
O65        Cu69 1.951       .   S
O65         C72 1.251       .   A
O66        Cu69 1.951       .   S
O66         C71 1.250       .   A
O67        Cu69 1.951       .   S
O67         C70 1.250       .   A
Cu68       Cu69 2.630       .   S
C70        C464 1.540       .   S
C71        C484 1.540       .   S
C72        C437 1.540       .   S
C73        C474 1.540       .   S
C74         C75 1.540       .   A
C74         C79 1.540       .   A
C74        C504 1.540       .   S
C75         C76 1.540       .   A
C75         H80 1.140       .   S
C76         C77 1.540       .   A
C76        C467 1.540       .   S
C77         C78 1.540       .   A
C77         H81 1.140       .   S
C78         C79 1.540       .   A
C78        C494 1.540       .   S
C79         H82 1.140       .   S
C83         C84 1.540       .   A
C83         C88 1.540       .   A
C83        C524 1.540       .   S
C84         C85 1.540       .   A
C84         H89 1.140       .   S
C85         C86 1.540       .   A
C85        C477 1.540       .   S
C86         C87 1.540       .   A
C86         H90 1.140       .   S
C87         C88 1.540       .   A
C87        C517 1.540       .   S
C88         H91 1.140       .   S
C92         C93 1.540       .   A
C92         C97 1.540       .   A
C92        C487 1.540       .   S
C93         C94 1.540       .   A
C93         H98 1.140       .   S
C94         C95 1.540       .   A
C94        C534 1.540       .   S
C95         C96 1.540       .   A
C95         H99 1.140       .   S
C96         C97 1.540       .   A
C96        C544 1.540       .   S
C97        H100 1.140       .   S
C101       C102 1.540       .   A
C101       C106 1.540       .   A
C101       C554 1.540       .   S
C102       C103 1.540       .   A
C102       H107 1.140       .   S
C103       C104 1.540       .   A
C103       C574 1.540       .   S
C104       C105 1.540       .   A
C104       H108 1.140       .   S
C105       C106 1.540       .   A
C105       C564 1.540       .   S
C106       H109 1.140       .   S
O110      Cu118 1.951       .   S
O110       C120 1.250       .   A
O111      Cu118 1.951       .   S
O111       C121 1.250       .   A
O112      Cu118 1.951       .   S
O112       C122 1.250       .   A
O113      Cu118 1.951       .   S
O113       C123 1.250       .   A
O114      Cu119 1.951       .   S
O114       C123 1.250       .   A
O115      Cu119 1.951       .   S
O115       C122 1.251       .   A
O116      Cu119 1.951       .   S
O116       C121 1.250       .   A
O117      Cu119 1.951       .   S
O117       C120 1.250       .   A
Cu118     Cu119 2.630       .   S
C120       C557 1.540   1_655   S
C121       C594 1.540       .   S
C122       C604 1.540       .   S
C123       C584 1.540       .   S
C124       C125 1.540       .   A
C124       C129 1.540       .   A
C124       C627 1.540       .   S
C125       C126 1.540       .   A
C125       H130 1.140       .   S
C126       C127 1.540       .   A
C126       C587 1.540   1_445   S
C127       C128 1.540       .   A
C127       H131 1.140       .   S
C128       C129 1.540       .   A
C128       C614 1.540       .   S
C129       H132 1.140       .   S
C133       C134 1.540       .   A
C133       C138 1.540       .   A
C133       C644 1.540       .   S
C134       C135 1.540       .   A
C134       H139 1.140       .   S
C135       C136 1.540       .   A
C135       C634 1.540       .   S
C136       C137 1.540       .   A
C136       H140 1.140       .   S
C137       C138 1.540       .   A
C137       C597 1.540   1_545   S
C138       H141 1.140       .   S
C142       C143 1.540       .   A
C142       C147 1.540       .   A
C142       C664 1.540       .   S
C143       C144 1.540       .   A
C143       H148 1.140       .   S
C144       C145 1.540       .   A
C144       C654 1.540       .   S
C145       C146 1.540       .   A
C145       H149 1.140       .   S
C146       C147 1.540       .   A
C146       C607 1.540       .   S
C147       H150 1.140       .   S
C151       C152 1.540       .   A
C151       C156 1.540       .   A
C151       C674 1.540       .   S
C152       C153 1.540       .   A
C152       H157 1.140       .   S
C153       C154 1.540       .   A
C153       C684 1.540       .   S
C154       C155 1.540       .   A
C154       H158 1.140       .   S
C155       C156 1.540       .   A
C155       C694 1.540       .   S
C156       H159 1.140       .   S
O160      Cu168 1.951       .   S
O160       C170 1.250       .   A
O161      Cu168 1.951       .   S
O161       C171 1.250       .   A
O162      Cu168 1.951       .   S
O162       C172 1.250       .   A
O163      Cu168 1.951       .   S
O163       C173 1.250       .   A
O164      Cu169 1.951       .   S
O164       C173 1.250       .   A
O165      Cu169 1.951       .   S
O165       C172 1.251       .   A
O166      Cu169 1.951       .   S
O166       C171 1.250       .   A
O167      Cu169 1.951       .   S
O167       C170 1.250       .   A
Cu168     Cu169 2.630       .   S
C170       C677 1.540   1_565   S
C171       C714 1.540       .   S
C172       C724 1.540       .   S
C173       C704 1.540       .   S
C174       C175 1.540       .   A
C174       C179 1.540       .   A
C174       C744 1.540       .   S
C175       C176 1.540       .   A
C175       H180 1.140       .   S
C176       C177 1.540       .   A
C176       C707 1.540       .   S
C177       C178 1.540       .   A
C177       H181 1.140       .   S
C178       C179 1.540       .   A
C178       C734 1.540       .   S
C179       H182 1.140       .   S
C183       C184 1.540       .   A
C183       C188 1.540       .   A
C183       C717 1.540   1_455   S
C184       C185 1.540       .   A
C184       H189 1.140       .   S
C185       C186 1.540       .   A
C185       C757 1.540       .   S
C186       C187 1.540       .   A
C186       H190 1.140       .   S
C187       C188 1.540       .   A
C187       C764 1.540       .   S
C188       H191 1.140       .   S
C192       C193 1.540       .   A
C192       C197 1.540       .   A
C192       C784 1.540       .   S
C193       C194 1.540       .   A
C193       H198 1.140       .   S
C194       C195 1.540       .   A
C194       C727 1.540   1_445   S
C195       C196 1.540       .   A
C195       H199 1.140       .   S
C196       C197 1.540       .   A
C196       C774 1.540       .   S
C197       H200 1.140       .   S
O201      Cu209 1.951       .   S
O201       C211 1.250       .   A
O202      Cu209 1.951       .   S
O202       C212 1.250       .   A
O203      Cu209 1.951       .   S
O203       C213 1.250       .   A
O204      Cu209 1.951       .   S
O204       C214 1.250       .   A
O205      Cu210 1.951       .   S
O205       C214 1.250       .   A
O206      Cu210 1.951       .   S
O206       C213 1.251       .   A
O207      Cu210 1.951       .   S
O207       C212 1.250       .   A
O208      Cu210 1.951       .   S
O208       C211 1.250       .   A
Cu209     Cu210 2.630       .   S
C211       C637 1.540   1_454   S
C212       C424 1.540       .   S
C213       C507 1.540   1_554   S
C214       C687 1.540   1_455   S
O215      Cu223 1.951       .   S
O215       C225 1.250       .   A
O216      Cu223 1.951       .   S
O216       C226 1.250       .   A
O217      Cu223 1.951       .   S
O217       C227 1.250       .   A
O218      Cu223 1.951       .   S
O218       C228 1.250       .   A
O219      Cu224 1.951       .   S
O219       C228 1.250       .   A
O220      Cu224 1.951       .   S
O220       C227 1.251       .   A
O221      Cu224 1.951       .   S
O221       C226 1.250       .   A
O222      Cu224 1.951       .   S
O222       C225 1.250       .   A
Cu223     Cu224 2.630       .   S
C225       C334 1.540       .   S
C226       C657 1.540   1_544   S
C227       C737 1.540   1_545   S
C228       C527 1.540   1_554   S
O229      Cu237 1.951       .   S
O229       C239 1.250       .   A
O230      Cu237 1.951       .   S
O230       C240 1.250       .   A
O231      Cu237 1.951       .   S
O231       C241 1.250       .   A
O232      Cu237 1.951       .   S
O232       C242 1.250       .   A
O233      Cu238 1.951       .   S
O233       C242 1.250       .   A
O234      Cu238 1.951       .   S
O234       C241 1.251       .   A
O235      Cu238 1.951       .   S
O235       C240 1.250       .   A
O236      Cu238 1.951       .   S
O236       C239 1.250       .   A
Cu237     Cu238 2.630       .   S
C239       C387 1.540       .   S
C240       C567 1.540   1_654   S
C241       C754 1.540   1_655   S
C242       C547 1.540   1_554   S
O243      Cu251 1.951       .   S
O243       C253 1.250       .   A
O244      Cu251 1.951       .   S
O244       C254 1.250       .   A
O245      Cu251 1.951       .   S
O245       C255 1.250       .   A
O246      Cu251 1.951       .   S
O246       C256 1.250       .   A
O247      Cu252 1.951       .   S
O247       C256 1.250       .   A
O248      Cu252 1.951       .   S
O248       C255 1.251       .   A
O249      Cu252 1.951       .   S
O249       C254 1.250       .   A
O250      Cu252 1.951       .   S
O250       C253 1.250       .   A
Cu251     Cu252 2.630       .   S
C253       C457 1.540   1_554   S
C254       C777 1.540   1_565   S
C255       C617 1.540   1_564   S
C256       C407 1.540       .   S
O257      Cu265 1.951       .   S
O257       C267 1.250       .   A
O258      Cu265 1.951       .   S
O258       C268 1.250       .   A
O259      Cu265 1.951       .   S
O259       C269 1.250       .   A
O260      Cu265 1.951       .   S
O260       C270 1.250       .   A
O261      Cu266 1.951       .   S
O261       C270 1.250       .   A
O262      Cu266 1.951       .   S
O262       C269 1.251       .   A
O263      Cu266 1.951       .   S
O263       C268 1.250       .   A
O264      Cu266 1.951       .   S
O264       C267 1.250       .   A
Cu265     Cu266 2.630       .   S
C267       C767 1.540       .   S
C268       C497 1.540       .   S
C269       C414 1.540       .   S
C270       C577 1.540       .   S
O271      Cu279 1.951       .   S
O271       C281 1.250       .   A
O272      Cu279 1.951       .   S
O272       C282 1.250       .   A
O273      Cu279 1.951       .   S
O273       C283 1.250       .   A
O274      Cu279 1.951       .   S
O274       C284 1.250       .   A
O275      Cu280 1.951       .   S
O275       C284 1.250       .   A
O276      Cu280 1.951       .   S
O276       C283 1.251       .   A
O277      Cu280 1.951       .   S
O277       C282 1.250       .   A
O278      Cu280 1.951       .   S
O278       C281 1.250       .   A
Cu279     Cu280 2.630       .   S
C281       C327 1.540       .   S
C282       C624 1.540       .   S
C283       C787 1.540       .   S
C284       C514 1.540       .   S
O285      Cu293 1.951       .   S
O285       C295 1.250       .   A
O286      Cu293 1.951       .   S
O286       C296 1.250       .   A
O287      Cu293 1.951       .   S
O287       C297 1.250       .   A
O288      Cu293 1.951       .   S
O288       C298 1.250       .   A
O289      Cu294 1.951       .   S
O289       C298 1.250       .   A
O290      Cu294 1.951       .   S
O290       C297 1.251       .   A
O291      Cu294 1.951       .   S
O291       C296 1.250       .   A
O292      Cu294 1.951       .   S
O292       C295 1.250       .   A
Cu293     Cu294 2.630       .   S
C295       C377 1.540       .   S
C296       C647 1.540       .   S
C297       C697 1.540       .   S
C298       C537 1.540       .   S
O299      Cu307 1.951       .   S
O299       C309 1.250       .   A
O300      Cu307 1.951       .   S
O300       C310 1.250       .   A
O301      Cu307 1.951       .   S
O301       C311 1.250       .   A
O302      Cu307 1.951       .   S
O302       C312 1.250       .   A
O303      Cu308 1.951       .   S
O303       C312 1.250       .   A
O304      Cu308 1.951       .   S
O304       C311 1.251       .   A
O305      Cu308 1.951       .   S
O305       C310 1.250       .   A
O306      Cu308 1.951       .   S
O306       C309 1.250       .   A
Cu307     Cu308 2.630       .   S
C309       C394 1.540       .   S
C310       C667 1.540       .   S
C311       C747 1.540       .   S
C312       C447 1.540       .   S
C783       C784 1.540       .   A
C783       C788 1.540       .   A
C783       H789 1.140       .   S
C784       C785 1.540       .   A
C785       C786 1.540       .   A
C785       H790 1.140       .   S
C786       C787 1.540       .   A
C786       H791 1.140       .   S
C787       C788 1.540       .   A
C788       H792 1.140       .   S
C773       C774 1.540       .   A
C773       C778 1.540       .   A
C773       H779 1.140       .   S
C774       C775 1.540       .   A
C775       C776 1.540       .   A
C775       H780 1.140       .   S
C776       C777 1.540       .   A
C776       H781 1.140       .   S
C777       C778 1.540       .   A
C778       H782 1.140       .   S
C763       C764 1.540       .   A
C763       C768 1.540       .   A
C763       H769 1.140       .   S
C764       C765 1.540       .   A
C765       C766 1.540       .   A
C765       H770 1.140       .   S
C766       C767 1.540       .   A
C766       H771 1.140       .   S
C767       C768 1.540       .   A
C768       H772 1.140       .   S
C753       C754 1.540       .   A
C753       C758 1.540       .   A
C753       H759 1.140       .   S
C754       C755 1.540       .   A
C755       C756 1.540       .   A
C755       H760 1.140       .   S
C756       C757 1.540       .   A
C756       H761 1.140       .   S
C757       C758 1.540       .   A
C758       H762 1.140       .   S
C743       C744 1.540       .   A
C743       C748 1.540       .   A
C743       H749 1.140       .   S
C744       C745 1.540       .   A
C745       C746 1.540       .   A
C745       H750 1.140       .   S
C746       C747 1.540       .   A
C746       H751 1.140       .   S
C747       C748 1.540       .   A
C748       H752 1.140       .   S
C733       C734 1.540       .   A
C733       C738 1.540       .   A
C733       H739 1.140       .   S
C734       C735 1.540       .   A
C735       C736 1.540       .   A
C735       H740 1.140       .   S
C736       C737 1.540       .   A
C736       H741 1.140       .   S
C737       C738 1.540       .   A
C738       H742 1.140       .   S
C723       C724 1.540       .   A
C723       C728 1.540       .   A
C723       H729 1.140       .   S
C724       C725 1.540       .   A
C725       C726 1.540       .   A
C725       H730 1.140       .   S
C726       C727 1.540       .   A
C726       H731 1.140       .   S
C727       C728 1.540       .   A
C728       H732 1.140       .   S
C713       C714 1.540       .   A
C713       C718 1.540       .   A
C713       H719 1.140       .   S
C714       C715 1.540       .   A
C715       C716 1.540       .   A
C715       H720 1.140       .   S
C716       C717 1.540       .   A
C716       H721 1.140       .   S
C717       C718 1.540       .   A
C718       H722 1.140       .   S
C703       C704 1.540       .   A
C703       C708 1.540       .   A
C703       H709 1.140       .   S
C704       C705 1.540       .   A
C705       C706 1.540       .   A
C705       H710 1.140       .   S
C706       C707 1.540       .   A
C706       H711 1.140       .   S
C707       C708 1.540       .   A
C708       H712 1.140       .   S
C693       C694 1.540       .   A
C693       C698 1.540       .   A
C693       H699 1.140       .   S
C694       C695 1.540       .   A
C695       C696 1.540       .   A
C695       H700 1.140       .   S
C696       C697 1.540       .   A
C696       H701 1.140       .   S
C697       C698 1.540       .   A
C698       H702 1.140       .   S
C683       C684 1.540       .   A
C683       C688 1.540       .   A
C683       H689 1.140       .   S
C684       C685 1.540       .   A
C685       C686 1.540       .   A
C685       H690 1.140       .   S
C686       C687 1.540       .   A
C686       H691 1.140       .   S
C687       C688 1.540       .   A
C688       H692 1.140       .   S
C673       C674 1.540       .   A
C673       C678 1.540       .   A
C673       H679 1.140       .   S
C674       C675 1.540       .   A
C675       C676 1.540       .   A
C675       H680 1.140       .   S
C676       C677 1.540       .   A
C676       H681 1.140       .   S
C677       C678 1.540       .   A
C678       H682 1.140       .   S
C663       C664 1.540       .   A
C663       C668 1.540       .   A
C663       H669 1.140       .   S
C664       C665 1.540       .   A
C665       C666 1.540       .   A
C665       H670 1.140       .   S
C666       C667 1.540       .   A
C666       H671 1.140       .   S
C667       C668 1.540       .   A
C668       H672 1.140       .   S
C653       C654 1.540       .   A
C653       C658 1.540       .   A
C653       H659 1.140       .   S
C654       C655 1.540       .   A
C655       C656 1.540       .   A
C655       H660 1.140       .   S
C656       C657 1.540       .   A
C656       H661 1.140       .   S
C657       C658 1.540       .   A
C658       H662 1.140       .   S
C643       C644 1.540       .   A
C643       C648 1.540       .   A
C643       H649 1.140       .   S
C644       C645 1.540       .   A
C645       C646 1.540       .   A
C645       H650 1.140       .   S
C646       C647 1.540       .   A
C646       H651 1.140       .   S
C647       C648 1.540       .   A
C648       H652 1.140       .   S
C633       C634 1.540       .   A
C633       C638 1.540       .   A
C633       H639 1.140       .   S
C634       C635 1.540       .   A
C635       C636 1.540       .   A
C635       H640 1.140       .   S
C636       C637 1.540       .   A
C636       H641 1.140       .   S
C637       C638 1.540       .   A
C638       H642 1.140       .   S
C623       C624 1.540       .   A
C623       C628 1.540       .   A
C623       H629 1.140       .   S
C624       C625 1.540       .   A
C625       C626 1.540       .   A
C625       H630 1.140       .   S
C626       C627 1.540       .   A
C626       H631 1.140       .   S
C627       C628 1.540       .   A
C628       H632 1.140       .   S
C613       C614 1.540       .   A
C613       C618 1.540       .   A
C613       H619 1.140       .   S
C614       C615 1.540       .   A
C615       C616 1.540       .   A
C615       H620 1.140       .   S
C616       C617 1.540       .   A
C616       H621 1.140       .   S
C617       C618 1.540       .   A
C618       H622 1.140       .   S
C603       C604 1.540       .   A
C603       C608 1.540       .   A
C603       H609 1.140       .   S
C604       C605 1.540       .   A
C605       C606 1.540       .   A
C605       H610 1.140       .   S
C606       C607 1.540       .   A
C606       H611 1.140       .   S
C607       C608 1.540       .   A
C608       H612 1.140       .   S
C593       C594 1.540       .   A
C593       C598 1.540       .   A
C593       H599 1.140       .   S
C594       C595 1.540       .   A
C595       C596 1.540       .   A
C595       H600 1.140       .   S
C596       C597 1.540       .   A
C596       H601 1.140       .   S
C597       C598 1.540       .   A
C598       H602 1.140       .   S
C583       C584 1.540       .   A
C583       C588 1.540       .   A
C583       H589 1.140       .   S
C584       C585 1.540       .   A
C585       C586 1.540       .   A
C585       H590 1.140       .   S
C586       C587 1.540       .   A
C586       H591 1.140       .   S
C587       C588 1.540       .   A
C588       H592 1.140       .   S
C573       C574 1.540       .   A
C573       C578 1.540       .   A
C573       H579 1.140       .   S
C574       C575 1.540       .   A
C575       C576 1.540       .   A
C575       H580 1.140       .   S
C576       C577 1.540       .   A
C576       H581 1.140       .   S
C577       C578 1.540       .   A
C578       H582 1.140       .   S
C563       C564 1.540       .   A
C563       C568 1.540       .   A
C563       H569 1.140       .   S
C564       C565 1.540       .   A
C565       C566 1.540       .   A
C565       H570 1.140       .   S
C566       C567 1.540       .   A
C566       H571 1.140       .   S
C567       C568 1.540       .   A
C568       H572 1.140       .   S
C553       C554 1.540       .   A
C553       C558 1.540       .   A
C553       H559 1.140       .   S
C554       C555 1.540       .   A
C555       C556 1.540       .   A
C555       H560 1.140       .   S
C556       C557 1.540       .   A
C556       H561 1.140       .   S
C557       C558 1.540       .   A
C558       H562 1.140       .   S
C543       C544 1.540       .   A
C543       C548 1.540       .   A
C543       H549 1.140       .   S
C544       C545 1.540       .   A
C545       C546 1.540       .   A
C545       H550 1.140       .   S
C546       C547 1.540       .   A
C546       H551 1.140       .   S
C547       C548 1.540       .   A
C548       H552 1.140       .   S
C533       C534 1.540       .   A
C533       C538 1.540       .   A
C533       H539 1.140       .   S
C534       C535 1.540       .   A
C535       C536 1.540       .   A
C535       H540 1.140       .   S
C536       C537 1.540       .   A
C536       H541 1.140       .   S
C537       C538 1.540       .   A
C538       H542 1.140       .   S
C523       C524 1.540       .   A
C523       C528 1.540       .   A
C523       H529 1.140       .   S
C524       C525 1.540       .   A
C525       C526 1.540       .   A
C525       H530 1.140       .   S
C526       C527 1.540       .   A
C526       H531 1.140       .   S
C527       C528 1.540       .   A
C528       H532 1.140       .   S
C513       C514 1.540       .   A
C513       C518 1.540       .   A
C513       H519 1.140       .   S
C514       C515 1.540       .   A
C515       C516 1.540       .   A
C515       H520 1.140       .   S
C516       C517 1.540       .   A
C516       H521 1.140       .   S
C517       C518 1.540       .   A
C518       H522 1.140       .   S
C503       C504 1.540       .   A
C503       C508 1.540       .   A
C503       H509 1.140       .   S
C504       C505 1.540       .   A
C505       C506 1.540       .   A
C505       H510 1.140       .   S
C506       C507 1.540       .   A
C506       H511 1.140       .   S
C507       C508 1.540       .   A
C508       H512 1.140       .   S
C493       C494 1.540       .   A
C493       C498 1.540       .   A
C493       H499 1.140       .   S
C494       C495 1.540       .   A
C495       C496 1.540       .   A
C495       H500 1.140       .   S
C496       C497 1.540       .   A
C496       H501 1.140       .   S
C497       C498 1.540       .   A
C498       H502 1.140       .   S
C483       C484 1.540       .   A
C483       C488 1.540       .   A
C483       H489 1.140       .   S
C484       C485 1.540       .   A
C485       C486 1.540       .   A
C485       H490 1.140       .   S
C486       C487 1.540       .   A
C486       H491 1.140       .   S
C487       C488 1.540       .   A
C488       H492 1.140       .   S
C473       C474 1.540       .   A
C473       C478 1.540       .   A
C473       H479 1.140       .   S
C474       C475 1.540       .   A
C475       C476 1.540       .   A
C475       H480 1.140       .   S
C476       C477 1.540       .   A
C476       H481 1.140       .   S
C477       C478 1.540       .   A
C478       H482 1.140       .   S
C463       C464 1.540       .   A
C463       C468 1.540       .   A
C463       H469 1.140       .   S
C464       C465 1.540       .   A
C465       C466 1.540       .   A
C465       H470 1.140       .   S
C466       C467 1.540       .   A
C466       H471 1.140       .   S
C467       C468 1.540       .   A
C468       H472 1.140       .   S
C453       C454 1.540       .   A
C453       C458 1.540       .   A
C453       H459 1.140       .   S
C454       C455 1.540       .   A
C455       C456 1.540       .   A
C455       H460 1.140       .   S
C456       C457 1.540       .   A
C456       H461 1.140       .   S
C457       C458 1.540       .   A
C458       H462 1.140       .   S
C443       C444 1.540       .   A
C443       C448 1.540       .   A
C443       H449 1.140       .   S
C444       C445 1.540       .   A
C445       C446 1.540       .   A
C445       H450 1.140       .   S
C446       C447 1.540       .   A
C446       H451 1.140       .   S
C447       C448 1.540       .   A
C448       H452 1.140       .   S
C433       C434 1.540       .   A
C433       C438 1.540       .   A
C433       H439 1.140       .   S
C434       C435 1.540       .   A
C435       C436 1.540       .   A
C435       H440 1.140       .   S
C436       C437 1.540       .   A
C436       H441 1.140       .   S
C437       C438 1.540       .   A
C438       H442 1.140       .   S
C423       C424 1.540       .   A
C423       C428 1.540       .   A
C423       H429 1.140       .   S
C424       C425 1.540       .   A
C425       C426 1.540       .   A
C425       H430 1.140       .   S
C426       C427 1.540       .   A
C426       H431 1.140       .   S
C427       C428 1.540       .   A
C428       H432 1.140       .   S
C413       C414 1.540       .   A
C413       C418 1.540       .   A
C413       H419 1.140       .   S
C414       C415 1.540       .   A
C415       C416 1.540       .   A
C415       H420 1.140       .   S
C416       C417 1.540       .   A
C416       H421 1.140       .   S
C417       C418 1.540       .   A
C418       H422 1.140       .   S
C403       C404 1.540       .   A
C403       C408 1.540       .   A
C403       H409 1.140       .   S
C404       C405 1.540       .   A
C405       C406 1.540       .   A
C405       H410 1.140       .   S
C406       C407 1.540       .   A
C406       H411 1.140       .   S
C407       C408 1.540       .   A
C408       H412 1.140       .   S
C393       C394 1.540       .   A
C393       C398 1.540       .   A
C393       H399 1.140       .   S
C394       C395 1.540       .   A
C395       C396 1.540       .   A
C395       H400 1.140       .   S
C396       C397 1.540       .   A
C396       H401 1.140       .   S
C397       C398 1.540       .   A
C398       H402 1.140       .   S
C383       C384 1.540       .   A
C383       C388 1.540       .   A
C383       H389 1.140       .   S
C384       C385 1.540       .   A
C385       C386 1.540       .   A
C385       H390 1.140       .   S
C386       C387 1.540       .   A
C386       H391 1.140       .   S
C387       C388 1.540       .   A
C388       H392 1.140       .   S
C373       C374 1.540       .   A
C373       C378 1.540       .   A
C373       H379 1.140       .   S
C374       C375 1.540       .   A
C375       C376 1.540       .   A
C375       H380 1.140       .   S
C376       C377 1.540       .   A
C376       H381 1.140       .   S
C377       C378 1.540       .   A
C378       H382 1.140       .   S
C363       C364 1.540       .   A
C363       C368 1.540       .   A
C363       H369 1.140       .   S
C364       C365 1.540       .   A
C365       C366 1.540       .   A
C365       H370 1.140       .   S
C366       C367 1.540       .   A
C366       H371 1.140       .   S
C367       C368 1.540       .   A
C368       H372 1.140       .   S
C353       C354 1.540       .   A
C353       C358 1.540       .   A
C353       H359 1.140       .   S
C354       C355 1.540       .   A
C355       C356 1.540       .   A
C355       H360 1.140       .   S
C356       C357 1.540       .   A
C356       H361 1.140       .   S
C357       C358 1.540       .   A
C358       H362 1.140       .   S
C343       C344 1.540       .   A
C343       C348 1.540       .   A
C343       H349 1.140       .   S
C344       C345 1.540       .   A
C345       C346 1.540       .   A
C345       H350 1.140       .   S
C346       C347 1.540       .   A
C346       H351 1.140       .   S
C347       C348 1.540       .   A
C348       H352 1.140       .   S
C333       C334 1.540       .   A
C333       C338 1.540       .   A
C333       H339 1.140       .   S
C334       C335 1.540       .   A
C335       C336 1.540       .   A
C335       H340 1.140       .   S
C336       C337 1.540       .   A
C336       H341 1.140       .   S
C337       C338 1.540       .   A
C338       H342 1.140       .   S
C323       C324 1.540       .   A
C323       C328 1.540       .   A
C323       H329 1.140       .   S
C324       C325 1.540       .   A
C325       C326 1.540       .   A
C325       H330 1.140       .   S
C326       C327 1.540       .   A
C326       H331 1.140       .   S
C327       C328 1.540       .   A
C328       H332 1.140       .   S
C313       C314 1.540       .   A
C313       C318 1.540       .   A
C313       H319 1.140       .   S
C314       C315 1.540       .   A
C315       C316 1.540       .   A
C315       H320 1.140       .   S
C316       C317 1.540       .   A
C316       H321 1.140       .   S
C317       C318 1.540       .   A
C318       H322 1.140       .   S
