data_fog_v1-3c_B_Ch_v2-4c_Cu_1_Ch_2-1B_4H_Ch
_audit_creation_date              2024-08-05
_audit_creation_method            'tobacco_3.0'
_symmetry_space_group_name_H-M    'P1'
_symmetry_Int_Tables_number       1
_symmetry_cell_setting            triclinic
loop_
_symmetry_equiv_pos_as_xyz
  x,y,z
_cell_length_a                    38.55855992828154
_cell_length_b                    38.558409105400486
_cell_length_c                    42.03661931797569
_cell_angle_alpha                 90.12348060006518
_cell_angle_beta                  89.87529672522699
_cell_angle_gamma                 121.08194243768104
loop_
_atom_site_label
_atom_site_type_symbol
_atom_site_fract_x
_atom_site_fract_y
_atom_site_fract_z
_atom_site_charge
C1         C    0.0088338629    0.7001865864    0.3084962236          0.1483
C2         C    0.0009887074    0.6675053570    0.3332325481          0.1483
C3         C    0.0336548445    0.6755187706    0.3580363245          0.1483
C4         C    0.0741661371    0.7162134136    0.3581037764          0.1483
C5         C    0.0820112926    0.7488946430    0.3333674519          0.1483
C6         C    0.0493451555    0.7408812294    0.3085636755          0.1483
H7         H    0.9709963908    0.6373755349    0.3331843698          0.1483
H8         H    0.0983475633    0.7221454211    0.3764650136          0.1483
H9         H    0.0551560459    0.7650790440    0.2902506166          0.1483
C10        C    0.2914950345    0.9844092566    0.3096537776          0.1483
C11        C    0.2508677095    0.9438301017    0.3095739122          0.1483
C12        C    0.2428480571    0.9110754286    0.3342945502          0.1483
C13        C    0.2754557296    0.9188999104    0.3590950538          0.1483
C14        C    0.3160830546    0.9594790653    0.3591749192          0.1483
C15        C    0.3241027071    0.9922337384    0.3344542812          0.1483
H16        H    0.2267243561    0.9380345118    0.2912133291          0.1483
H17        H    0.2695191038    0.8946529446    0.3773947469          0.1483
H18        H    0.3541826864    0.0222762940    0.3345151711          0.1483
C19        C    0.9584265245    0.3169949765    0.6422458213          0.1483
C20        C    0.9911176474    0.3250222087    0.6670271637          0.1483
C21        C    0.9832821655    0.2923697840    0.6917909403          0.1483
C22        C    0.9427555607    0.2516901271    0.6917733746          0.1483
C23        C    0.9100644379    0.2436628949    0.6669920323          0.1483
C24        C    0.9178999198    0.2763153196    0.6422282557          0.1483
H25        H    0.0211230663    0.3551391835    0.6670419298          0.1483
H26        H    0.9369552690    0.2275188517    0.7101050015          0.1483
H27        H    0.8936947926    0.2703696202    0.6238818627          0.1483
C28        C    0.7005379886    0.0083089110    0.6913139752          0.1483
C29        C    0.7411268714    0.0489267327    0.6913212561          0.1483
C30        C    0.7490412728    0.0816038926    0.6665573040          0.1483
C31        C    0.7163667913    0.0736632308    0.6417860710          0.1483
C32        C    0.6757779085    0.0330454092    0.6417787901          0.1483
C33        C    0.6678635071    0.0003682493    0.6665427422          0.1483
H34        H    0.7653196828    0.0548083369    0.7096601641          0.1483
H35        H    0.7222255040    0.0978528167    0.6234543142          0.1483
H36        H    0.6378119830    0.9702970592    0.6665355910          0.1483
O37        O    0.4821864108    0.0375871051    0.5269129554         -1.5782
O38        O    0.5436204508    0.0191989106    0.4628781949          -1.588
O39        O    0.4727954006    0.0198424658    0.4631250342         -1.4742
O40        O    0.5530166269    0.0369435095    0.5266660954         -1.5583
O41        O    0.5186368803    0.9711577107    0.5379012773         -1.5538
O42        O    0.4384163959    0.9540580675    0.4743648462         -1.4663
O43        O    0.5092407041    0.9534131119    0.4741133768         -1.5914
O44        O    0.4478066642    0.9718013063    0.5381481373         -1.5792
Cu45      Cu    0.5160421093    0.0343957781    0.4938682751          1.0456
Cu46      Cu    0.4753850057    0.9566044388    0.5071580571          1.0433
C47        C    0.4559373239    0.0074045163    0.5419720318          0.0838
C48        C    0.5354897910    0.9835957006    0.4590543003          0.0752
C49        C    0.4437787953    0.9844323622    0.4593790915         -0.0033
C50        C    0.5476483197    0.0065678547    0.5416472407          0.0594
O51        O    0.0197008974    0.5443109301    0.5375961700         -1.5782
O52        O    0.0378834572    0.4824405344    0.4738350806          -1.588
O53        O    0.0374836953    0.5533928986    0.4738133166         -1.4742
O54        O    0.0201006957    0.4733533979    0.5376179353         -1.5583
O55        O    0.9543211908    0.4390925064    0.5263601600         -1.5538
O56        O    0.9717030019    0.5191313997    0.4625602077         -1.4663
O57        O    0.9721039523    0.4481796429    0.4625773053         -1.5914
O58        O    0.9539213924    0.5100500386    0.5263383947         -1.5792
Cu59      Cu    0.0347955206    0.5165009084    0.5067409479          1.0456
Cu60      Cu    0.9570093291    0.4759896646    0.4934325274          1.0433
C61        C    0.9841294225    0.5363031316    0.5413681178          0.0838
C62        C    0.0076754272    0.4561874414    0.4588053575          0.0752
C63        C    0.0071580361    0.5480651934    0.4587829408         -0.0033
C64        C    0.9846468136    0.4444253796    0.5413905345          0.0594
C65        C    0.6229876729    0.9704712275    0.9751006482          0.1483
C66        C    0.6557114797    0.9955162561    0.0000897351          0.1483
C67        C    0.6484407339    0.0204499108    0.0249945645          0.1483
C68        C    0.6084461812    0.0203385369    0.0249103071          0.1483
C69        C    0.5757223743    0.9952935083    0.9999212202          0.1483
C70        C    0.5829931202    0.9703598536    0.9750163908          0.1483
H71        H    0.6853230065    0.9956004901    0.0001538899          0.1483
H72        H    0.6030639408    0.0387959177    0.0433463497          0.1483
H73        H    0.5587638339    0.9518182388    0.9565161933          0.1483
C74        C    0.3688801312    0.0214191222    0.0257699622          0.1483
C75        C    0.4088240901    0.0214323742    0.0258640437          0.1483
C76        C    0.4160379308    0.9964613451    0.0009567864          0.1483
C77        C    0.3833078127    0.9714770640    0.9759554476          0.1483
C78        C    0.3433638539    0.9714638120    0.9758613660          0.1483
C79        C    0.3361500131    0.9964348411    0.0007686233          0.1483
H80        H    0.4330580452    0.0399290088    0.0443733124          0.1483
H81        H    0.3886479286    0.9529920165    0.9575176077          0.1483
H82        H    0.3065759422    0.9964232541    0.0006971945          0.1483
C83        C    0.0221791137    0.3697107399    0.9755731007          0.1483
C84        C    0.9972455455    0.3370264573    0.0006199029          0.1483
C85        C    0.9722293307    0.3442361664    0.0254863508          0.1483
C86        C    0.9721466843    0.3841301580    0.0253059964          0.1483
C87        C    0.9970802525    0.4168144406    0.0002591942          0.1483
C88        C    0.0220964672    0.4096047315    0.9753927463          0.1483
H89        H    0.9973049587    0.3074893819    0.0007552054          0.1483
H90        H    0.9536281877    0.3894672154    0.0437136266          0.1483
H91        H    0.0405555506    0.4338047496    0.9568498136          0.1483
C92        C    0.9691130880    0.6226309495    0.0246498902          0.1483
C93        C    0.9691402195    0.5827079236    0.0247851819          0.1483
C94        C    0.9941275861    0.5754911425    0.9998955043          0.1483
C95        C    0.0190878213    0.6081973874    0.9748705350          0.1483
C96        C    0.0190606899    0.6481204133    0.9747352433          0.1573
C97        C    0.9940733232    0.6553371943    0.9996249209          0.1483
H98        H    0.9506613898    0.5584916440    0.0433119478          0.1483
H99        H    0.0375849629    0.6028550949    0.9564457087          0.1483
H100       H    0.9940550114    0.6848957663    0.9995229813          0.1483
C101       C    0.0365104429    0.3565039132    0.3576646699          0.1483
C102       C    0.0038843449    0.3315293668    0.3325913858          0.1483
C103       C    0.0112050301    0.3065753065    0.3077404395          0.1483
C104       C    0.0511518132    0.3065957925    0.3079627772          0.1483
C105       C    0.0837779112    0.3315703389    0.3330360613          0.1483
C106       C    0.0764572261    0.3565243993    0.3578870076          0.1483
H107       H    0.9743081904    0.3315124249    0.3324249999          0.1483
H108       H    0.0565710217    0.2881233063    0.2895666222          0.1483
H109       H    0.1006141721    0.3750138274    0.3764495486          0.1483
C110       C    0.2892865056    0.3031230773    0.3089614977          0.1483
C111       C    0.2493531323    0.3031273733    0.3086767216          0.1483
C112       C    0.2419908177    0.3280683222    0.3335119364          0.1483
C113       C    0.2745618764    0.3530049750    0.3586319273          0.1483
C114       C    0.3144952497    0.3530006790    0.3589167034          0.1483
C115       C    0.3218575643    0.3280597301    0.3340814886          0.1483
H116       H    0.2252369346    0.2846660007    0.2900795976          0.1483
H117       H    0.2691118513    0.3714677554    0.3770164370          0.1483
H118       H    0.3514237872    0.3280583224    0.3342941029          0.1483
O119       O    0.3723751228    0.1495253842    0.1410646178         -1.5782
O120       O    0.3543992120    0.2117490381    0.2046291118          -1.588
O121       O    0.3546347667    0.1407122611    0.2048544895         -1.4742
O122       O    0.3721395574    0.2205673426    0.1408392263         -1.5583
O123       O    0.3063514716    0.1863740737    0.1296109887         -1.5538
O124       O    0.2888480811    0.1065196917    0.1936216217         -1.4663
O125       O    0.2886111262    0.1775557692    0.1934008742         -1.5914
O126       O    0.3065870370    0.1153321154    0.1298363802         -1.5792
Cu127     Cu    0.3693901559    0.1837588955    0.1738735204          1.0456
Cu128     Cu    0.2915960931    0.1433222579    0.1605919716          1.0433
C129       C    0.3421305980    0.1232531148    0.1260783559          0.0838
C130       C    0.3188556510    0.2038280387    0.2083871361          0.0752
C131       C    0.3191639846    0.1118428192    0.2086738277         -0.0033
C132       C    0.3418222645    0.2152383342    0.1257916643          0.0594
C133       C    0.6900186567    0.7032804911    0.3095948017          0.1483
C134       C    0.6650758316    0.6706965322    0.3347057751          0.1483
C135       C    0.6401075514    0.6780351676    0.3595308497          0.1483
C136       C    0.6400820963    0.7179577619    0.3592449511          0.1483
C137       C    0.6650249213    0.7505417208    0.3341339777          0.1483
C138       C    0.6899932016    0.7432030854    0.3093089030          0.1483
H139       H    0.6650929037    0.6411382885    0.3349192198          0.1483
H140       H    0.6215990836    0.7233902582    0.3776219544          0.1483
H141       H    0.7084591421    0.7673288328    0.2907184550          0.1483
C142       C    0.6353993670    0.9555797819    0.3575994132          0.1483
C143       C    0.6355021157    0.9156968202    0.3578501978          0.1483
C144       C    0.6605132759    0.9084416547    0.3330098202          0.1483
C145       C    0.6854216875    0.9410694508    0.3079186579          0.1483
C146       C    0.6853189388    0.9809524125    0.3076678733          0.1483
C147       C    0.6603077786    0.9882075781    0.3325082509          0.1483
H148       H    0.6170616580    0.8915386216    0.3764259766          0.1483
H149       H    0.7039364424    0.9356987438    0.2895303264          0.1483
H150       H    0.6602334814    0.0177364837    0.3323208036          0.1483
O151       O    0.8768392750    0.6856019465    0.1295661473         -1.5782
O152       O    0.8151172890    0.7037748403    0.1934735788          -1.588
O153       O    0.8860519564    0.7033411921    0.1933556696         -1.4742
O154       O    0.8058994408    0.6860356336    0.1296840653         -1.5583
O155       O    0.7716379085    0.6202482799    0.1409165908         -1.5538
O156       O    0.8517898073    0.6375526532    0.2045835283         -1.4663
O157       O    0.7808557567    0.6379874866    0.2047061043         -1.5914
O158       O    0.8425777427    0.6198145929    0.1407986728         -1.5792
Cu159     Cu    0.8491035211    0.7006924523    0.1604968480          1.0456
Cu160     Cu    0.8085915106    0.6228969809    0.1737754036          1.0433
C161       C    0.8688092742    0.6500279720    0.1257599957          0.0838
C162       C    0.7888857574    0.6735614612    0.2085122559          0.0752
C163       C    0.8807405824    0.6730001941    0.2083538073         -0.0033
C164       C    0.7769544492    0.6505892391    0.1259184443          0.0594
O165       O    0.8051267318    0.1148625287    0.1290221094         -1.5782
O166       O    0.8862295832    0.1783491428    0.1927747915          -1.588
O167       O    0.8138777040    0.1060094454    0.1927326905         -1.4742
O168       O    0.8774838884    0.1872074955    0.1290642138         -1.5583
O169       O    0.8451428495    0.2195482836    0.1405875985         -1.5538
O170       O    0.7815360816    0.1383508273    0.2042514136         -1.4663
O171       O    0.8538885443    0.2106899309    0.2042981763         -1.5914
O172       O    0.7727856929    0.1472033168    0.1405454942         -1.5792
Cu173     Cu    0.8486314003    0.1436559195    0.1598488886          1.0456
Cu174     Cu    0.8103838758    0.1818965401    0.1734713971          1.0433
C175       C    0.7769970220    0.1216719365    0.1253842086          0.0838
C176       C    0.8820182541    0.2038805231    0.2079360771          0.0752
C177       C    0.7883285294    0.1102063189    0.2078757927         -0.0033
C178       C    0.8706867467    0.2153461407    0.1254444930          0.0594
C179       C    0.3422194140    0.3666792720    0.9751029899          0.1483
C180       C    0.3343303957    0.3339688434    0.9998243768          0.1483
C181       C    0.3670096444    0.3418967165    0.0245894879          0.1483
C182       C    0.4075779114    0.3825350182    0.0246332121          0.1483
C183       C    0.4154669297    0.4152454468    0.9999118252          0.1483
C184       C    0.3827876810    0.4073175737    0.9751467141          0.1483
H185       H    0.3042958961    0.3038807304    0.9997937639          0.1483
H186       H    0.4317690435    0.3884037034    0.0429658269          0.1483
H187       H    0.3886310485    0.4315370014    0.9568447123          0.1483
C188       C    0.6496557724    0.6257300695    0.0255401133          0.1483
C189       C    0.6090688226    0.5851103917    0.0254912730          0.1483
C190       C    0.5764043735    0.5772111834    0.0007205474          0.1483
C191       C    0.5843268741    0.6099316530    0.9759986620          0.1483
C192       C    0.6249138239    0.6505513308    0.9760475023          0.1483
C193       C    0.6575782730    0.6584505391    0.0008182280          0.1483
H194       H    0.6032006659    0.5608835317    0.0437936435          0.1483
H195       H    0.5601466975    0.6040841871    0.9576618910          0.1483
H196       H    0.6876266064    0.6885248650    0.0008526285          0.1483
C197       C    0.9557606048    0.6364033579    0.6424164508          0.1483
C198       C    0.9884007873    0.6614103738    0.6674715774          0.1483
C199       C    0.9810507370    0.6863133232    0.6923521421          0.1483
C200       C    0.9410605042    0.6862092566    0.6921775801          0.1483
C201       C    0.9084203217    0.6612022407    0.6671224534          0.1483
C202       C    0.9157703719    0.6362992913    0.6422418888          0.1483
H203       H    0.0180091100    0.6614891952    0.6676025922          0.1483
H204       H    0.9356195579    0.7046439075    0.7105956605          0.1483
H205       H    0.8916029956    0.6177858191    0.6236927936          0.1483
C206       C    0.7022286242    0.6886636061    0.6918666109          0.1483
C207       C    0.7421828041    0.6886983111    0.6920818336          0.1483
C208       C    0.7495156409    0.6637652267    0.6672187882          0.1483
C209       C    0.7168942979    0.6387974373    0.6421405202          0.1483
C210       C    0.6769401180    0.6387627323    0.6419252975          0.1483
C211       C    0.6696072811    0.6636958167    0.6667883429          0.1483
H212       H    0.7663362304    0.7071827378    0.7106480639          0.1483
H213       H    0.7223225018    0.6203404787    0.6237354087          0.1483
H214       H    0.6400256509    0.6636683486    0.6666272241          0.1483
O215       O    0.6859809274    0.8772734194    0.8709331590         -1.5782
O216       O    0.7038991963    0.8150483170    0.8073318637          -1.588
O217       O    0.7036952227    0.8861016586    0.8071387738         -1.4742
O218       O    0.6861849232    0.8062149023    0.8711262627         -1.5583
O219       O    0.6203926902    0.7720480467    0.8599125487         -1.5538
O220       O    0.6379018061    0.8519342140    0.7959297270         -1.4663
O221       O    0.6381069633    0.7808814613    0.7961181497         -1.5914
O222       O    0.6201886944    0.8431065638    0.8597194450         -1.5792
Cu223     Cu    0.7009445600    0.8492774526    0.8401538166          1.0456
Cu224     Cu    0.6231433307    0.8088774281    0.8268974921          1.0433
C225       C    0.6504420580    0.8693649395    0.8747035758          0.0838
C226       C    0.6736458327    0.7887899412    0.7923477329          0.0752
C227       C    0.6733819778    0.8807984700    0.7921034628         -0.0033
C228       C    0.6507059129    0.7773564107    0.8749478459          0.0594
C229       C    0.3578993965    0.0374127683    0.6435831349          0.1483
C230       C    0.3329917246    0.0048581095    0.6687229572          0.1483
C231       C    0.3079746685    0.0121818259    0.6935106333          0.1483
C232       C    0.3078652843    0.0520602010    0.6931584870          0.1483
C233       C    0.3327729561    0.0846148597    0.6680186647          0.1483
C234       C    0.3577900122    0.0772911434    0.6432309886          0.1483
H235       H    0.3330709345    0.9753326047    0.6689854491          0.1483
H236       H    0.2893461648    0.0574816534    0.7115078056          0.1483
H237       H    0.3762299218    0.1013951959    0.6246191780          0.1483
C238       C    0.3011951833    0.2884278321    0.6905067527          0.1483
C239       C    0.3013658295    0.2485814236    0.6908727811          0.1483
C240       C    0.3263987993    0.2412836616    0.6660828529          0.1483
C241       C    0.3512611229    0.2738323081    0.6409268962          0.1483
C242       C    0.3510904767    0.3136787166    0.6405608679          0.1483
C243       C    0.3260575069    0.3209764786    0.6653507961          0.1483
H244       H    0.2829594970    0.2244818245    0.7094965373          0.1483
H245       H    0.3697920226    0.2684300687    0.6225759104          0.1483
H246       H    0.3259329398    0.3504783171    0.6650780257          0.1483
O247       O    0.1493915796    0.3726388553    0.8596415518         -1.5782
O248       O    0.2110922725    0.3543684150    0.7957784747          -1.588
O249       O    0.1401880189    0.3548603832    0.7958586595         -1.4742
O250       O    0.2203010049    0.3721468578    0.8595613585         -1.5583
O251       O    0.1859952923    0.3063661968    0.8708168760         -1.5538
O252       O    0.1058830344    0.2890811252    0.8071188067         -1.4663
O253       O    0.1767865599    0.2885877541    0.8070339922         -1.5914
O254       O    0.1150858670    0.3068581944    0.8708970693         -1.5792
Cu255     Cu    0.1833738562    0.3695059390    0.8266808614          1.0456
Cu256     Cu    0.1428042833    0.2917206704    0.8399946826          1.0433
C257       C    0.1231401942    0.3424414718    0.8746854810          0.0838
C258       C    0.2030379453    0.3187851375    0.7919900629          0.0752
C259       C    0.1112243694    0.3194255089    0.7920990489         -0.0033
C260       C    0.2149537701    0.3418011005    0.8745764951          0.0594
O261       O    0.2189398497    0.8452618006    0.8600953086         -1.5782
O262       O    0.1379829316    0.7820378011    0.7961755121          -1.588
O263       O    0.2104212016    0.8542900777    0.7963749612         -1.4742
O264       O    0.1464963027    0.7730042542    0.8598958424         -1.5583
O265       O    0.1142423889    0.8054427170    0.8713806779         -1.5538
O266       O    0.1781679598    0.8867278283    0.8078644215         -1.4663
O267       O    0.1057290178    0.8144762639    0.8076603477         -1.5914
O268       O    0.1866859359    0.8777002634    0.8715801442         -1.5792
Cu269     Cu    0.1814028275    0.8106882320    0.8270853312          1.0456
Cu270     Cu    0.1432660400    0.8490498325    0.8406703251          1.0433
C271       C    0.2147497165    0.8708041507    0.8752622642          0.0838
C272       C    0.1099191510    0.7889339138    0.7924933921          0.0752
C273       C    0.2037224833    0.8824931368    0.7927568041         -0.0033
C274       C    0.1209463842    0.7772449277    0.8749988522          0.0594
O275       O    0.5116439631    0.5529246424    0.4742438000         -1.5782
O276       O    0.4477612485    0.4716519933    0.5377775775          -1.588
O277       O    0.5201705182    0.5439335205    0.5379694053         -1.4742
O278       O    0.4392294122    0.4806378495    0.4740519608         -1.5583
O279       O    0.4715262188    0.4482369783    0.4625861860         -1.5538
O280       O    0.5524666493    0.5115333560    0.5264990053         -1.4663
O281       O    0.4800580551    0.4392511220    0.5263118026         -1.5914
O282       O    0.5439407696    0.5205237711    0.4627780252         -1.5792
Cu283     Cu    0.4767539445    0.5152431541    0.5070590198          1.0456
Cu284     Cu    0.5149480737    0.4769326103    0.4934965829          1.0433
C285       C    0.5372126066    0.5487075782    0.4591432949          0.0838
C286       C    0.4544894116    0.4434681862    0.5414123078          0.0752
C287       C    0.5482519747    0.5370685937    0.5416555670         -0.0033
C288       C    0.4434500435    0.4551071707    0.4589000356          0.0594
C729       C    0.3955550210    0.3685264207    0.5552560991          0.1483
C730       C    0.4287145687    0.4111148241    0.5661276354          0.1483
C731       C    0.4359494919    0.4211618548    0.6018581241          0.1483
C732       C    0.4100248673    0.3886204821    0.6267170765          0.1483
C733       C    0.3768653196    0.3460320787    0.6158455402          0.1483
C734       C    0.3696303964    0.3359850480    0.5801150515          0.1483
H735       H    0.3901992987    0.3610890084    0.5288062568          0.1483
H736       H    0.4604943002    0.4526859575    0.6099063275          0.1483
H737       H    0.4153805896    0.3960578944    0.6531669188          0.1483
H738       H    0.3450855881    0.3044609453    0.5720668482          0.1483
C719       C    0.2905242131    0.3034470412    0.7509502497          0.1483
C720       C    0.2765180793    0.2960597745    0.7160200440          0.1483
C721       C    0.2381104305    0.2962192181    0.7063182022          0.1483
C722       C    0.2137089156    0.3037659284    0.7315465660          0.1483
C723       C    0.2277150494    0.3111531951    0.7664767716          0.1483
C724       C    0.2661226981    0.3109937515    0.7761786135          0.1483
H725       H    0.3189558491    0.3033290115    0.7581321326          0.1483
H726       H    0.2277419246    0.2907511946    0.6804626810          0.1483
H727       H    0.1852772795    0.3038839581    0.7243646830          0.1483
H728       H    0.2764912041    0.3164617750    0.8020341346          0.1483
C709       C    0.3707204180    0.1654271251    0.6683344914          0.1483
C710       C    0.3311763136    0.1238583356    0.6675337692          0.1483
C711       C    0.2900417733    0.1213804711    0.6662500366          0.1483
C712       C    0.2884513374    0.1604713962    0.6657670261          0.1483
C713       C    0.3279954418    0.2020401858    0.6665677483          0.1483
C714       C    0.3691299821    0.2045180502    0.6678514810          0.1483
H715       H    0.4011706621    0.1672613884    0.6692847871          0.1483
H716       H    0.2607700660    0.0906113224    0.6656573042          0.1483
H717       H    0.2580010933    0.1586371329    0.6648167305          0.1483
H718       H    0.3984016894    0.2352871990    0.6684442133          0.1483
C699       C    0.2358119544    0.9532171988    0.7136405783          0.1483
C700       C    0.2819510961    0.9798087588    0.7182845975          0.1483
C701       C    0.3019877176    0.9739290413    0.7477777379          0.1483
C702       C    0.2758851974    0.9414577639    0.7726268591          0.1483
C703       C    0.2297460557    0.9148662039    0.7679828398          0.1483
C704       C    0.2097094342    0.9207459214    0.7384896994          0.1483
H705       H    0.2209796502    0.9575697169    0.6918079938          0.1483
H706       H    0.3361403804    0.9936118334    0.7512161578          0.1483
H707       H    0.2907175016    0.9371052458    0.7944594435          0.1483
H708       H    0.1755567714    0.9010631292    0.7350512795          0.1483
C689       C    0.6469480480    0.6311860398    0.5837302803          0.1483
C690       C    0.6448758712    0.6134243766    0.6169418507          0.1483
C691       C    0.6105238696    0.5701539998    0.6250020026          0.1483
C692       C    0.5782440447    0.5446452862    0.5998505842          0.1483
C693       C    0.5803162215    0.5624069495    0.5666390138          0.1483
C694       C    0.6146682231    0.6056773263    0.5585788619          0.1483
H695       H    0.6723774518    0.6632173577    0.5777636744          0.1483
H696       H    0.6089889645    0.5570055104    0.6495853440          0.1483
H697       H    0.5528146409    0.5126139683    0.6058171901          0.1483
H698       H    0.6162031281    0.6188258157    0.5339955205          0.1483
C679       C    0.7027537802    0.7560242085    0.7085215076          0.1483
C680       C    0.6950532410    0.7137991784    0.7170912484          0.1483
C681       C    0.6802366893    0.6965017435    0.7506769127          0.1483
C682       C    0.6731206767    0.7214293388    0.7756928362          0.1483
C683       C    0.6808212159    0.7636543689    0.7671230955          0.1483
C684       C    0.6956377676    0.7809518038    0.7335374312          0.1483
H685       H    0.7137218769    0.7688288032    0.6836593925          0.1483
H686       H    0.6745363086    0.6652463788    0.7570212672          0.1483
H687       H    0.6621525799    0.7086247441    0.8005549514          0.1483
H688       H    0.7013381482    0.8122071685    0.7271930766          0.1483
C669       C    0.8429292849    0.6511979434    0.6976828867          0.1483
C670       C    0.8685742088    0.6618449218    0.6671466099          0.1483
C671       C    0.8546129052    0.6731307121    0.6366343440          0.1483
C672       C    0.8150066777    0.6737695240    0.6366583549          0.1483
C673       C    0.7893617538    0.6631225456    0.6671946318          0.1483
C674       C    0.8033230574    0.6518367553    0.6977068977          0.1483
H675       H    0.8532642758    0.6428435272    0.7202698887          0.1483
H676       H    0.8735947449    0.6810119248    0.6140305347          0.1483
H677       H    0.8046716867    0.6821239402    0.6140713529          0.1483
H678       H    0.7843412177    0.6439555426    0.7203107069          0.1483
C659       C    0.0545553770    0.7477599170    0.7068394769          0.1483
C660       C    0.0131996986    0.7119142080    0.7173345028          0.1483
C661       C    0.0041292656    0.7017779095    0.7529177930          0.1483
C662       C    0.0364145111    0.7274873200    0.7780060573          0.1483
C663       C    0.0777701895    0.7633330290    0.7675110315          0.1483
C664       C    0.0868406224    0.7734693275    0.7319277413          0.1483
H665       H    0.0612698533    0.7552634106    0.6804985998          0.1483
H666       H    0.9735176524    0.6752447223    0.7606872999          0.1483
H667       H    0.0297000347    0.7199838263    0.8043469345          0.1483
H668       H    0.1174522357    0.8000025146    0.7241582343          0.1483
C649       C    0.6192015511    0.6692238915    0.9159341746          0.1483
C650       C    0.6313670069    0.6822779734    0.9507523590          0.1483
C651       C    0.6499753242    0.7270079527    0.9603158585          0.1483
C652       C    0.6564181857    0.7586838500    0.9350611736          0.1483
C653       C    0.6442527298    0.7456297681    0.9002429892          0.1483
C654       C    0.6256444125    0.7008997888    0.8906794897          0.1483
H655       H    0.6054265629    0.6361120886    0.9088547009          0.1483
H656       H    0.6589807403    0.7366719534    0.9860884575          0.1483
H657       H    0.6701931738    0.7917956529    0.9421406473          0.1483
H658       H    0.6166389964    0.6912357881    0.8649068907          0.1483
C639       C    0.5362337672    0.4969324272    0.0001266324          0.1483
C640       C    0.5364107188    0.5369619935    0.0005195764          0.1483
C641       C    0.4961126032    0.5362578814    0.0007091303          0.1483
C642       C    0.4556375360    0.4955242030    0.0005057402          0.1483
C643       C    0.4554605844    0.4554946367    0.0001127962          0.1483
C644       C    0.4957587000    0.4561987488    0.9999232423          0.1483
H645       H    0.5660648397    0.4974536530    0.9999863133          0.1483
H646       H    0.4962423069    0.5658876018    0.0009999920          0.1483
H647       H    0.4258064635    0.4950029772    0.0006460593          0.1483
H648       H    0.4956289963    0.4265690284    0.9996323805          0.1483
C629       C    0.3170684804    0.3543792311    0.9147234594          0.1483
C630       C    0.3103512085    0.3604496042    0.9499304539          0.1483
C631       C    0.2718693202    0.3603105593    0.9600467370          0.1483
C632       C    0.2401047037    0.3541011414    0.9349560256          0.1483
C633       C    0.2468219757    0.3480307683    0.8997490311          0.1483
C634       C    0.2853038640    0.3481698131    0.8896327480          0.1483
H635       H    0.3455550731    0.3544821604    0.9072347823          0.1483
H636       H    0.2668960015    0.3648038236    0.9861071494          0.1483
H637       H    0.2116181111    0.3539982121    0.9424447027          0.1483
H638       H    0.2902771826    0.3436765489    0.8635723356          0.1483
C619       C    0.7472865936    0.6812711876    0.0846612313          0.1483
C620       C    0.7450943099    0.6443675200    0.1007958925          0.1483
C621       C    0.7111128271    0.6012559866    0.0918639400          0.1483
C622       C    0.6793236280    0.5950481210    0.0667973264          0.1483
C623       C    0.6815159117    0.6319517886    0.0506626652          0.1483
C624       C    0.7154973945    0.6750633219    0.0595946177          0.1483
H625       H    0.7724417172    0.7131849201    0.0912731961          0.1483
H626       H    0.7094890310    0.5739386587    0.1038064761          0.1483
H627       H    0.6541685044    0.5631343885    0.0601853615          0.1483
H628       H    0.7171211906    0.7023806499    0.0476520815          0.1483
C609       C    0.6916519989    0.0152364130    0.2513685924          0.1483
C610       C    0.7110181819    0.0131991921    0.2827713474          0.1483
C611       C    0.7561899172    0.0435421448    0.2891745880          0.1483
C612       C    0.7819954693    0.0759223184    0.2641750736          0.1483
C613       C    0.7626292863    0.0779595393    0.2327723186          0.1483
C614       C    0.7174575511    0.0476165867    0.2263690780          0.1483
H615       H    0.6582131819    0.9927747468    0.2466285312          0.1483
H616       H    0.7705261266    0.0420351613    0.3124189983          0.1483
H617       H    0.8154342863    0.0983839847    0.2689151348          0.1483
H618       H    0.7031213416    0.0491235701    0.2031246677          0.1483
C599       C    0.7037015968    0.8314998080    0.3341554053          0.1483
C600       C    0.6638933255    0.7901456534    0.3338520203          0.1483
C601       C    0.6229608274    0.7881375331    0.3332685139          0.1483
C602       C    0.6218366004    0.8274835674    0.3329883926          0.1483
C603       C    0.6616448717    0.8688377220    0.3332917776          0.1483
C604       C    0.7025773699    0.8708458423    0.3338752839          0.1483
H605       H    0.7340022773    0.8329863386    0.3345873515          0.1483
H606       H    0.5934935911    0.7575272713    0.3330439310          0.1483
H607       H    0.5915359200    0.8259970368    0.3325564463          0.1483
H608       H    0.7320446062    0.9014561041    0.3340998669          0.1483
C589       C    0.5822033182    0.6490740590    0.4035637382          0.1483
C590       C    0.6144570072    0.6457952646    0.3843631039          0.1483
C591       C    0.6209137681    0.6100925784    0.3901364380          0.1483
C592       C    0.5951168398    0.5776686868    0.4151104064          0.1483
C593       C    0.5628631508    0.5809474812    0.4343110407          0.1483
C594       C    0.5564063899    0.6166501673    0.4285377066          0.1483
H595       H    0.5774236381    0.6755033201    0.3992899714          0.1483
H596       H    0.6447880384    0.6076644966    0.3759243795          0.1483
H597       H    0.5998965199    0.5512394256    0.4193841732          0.1483
H598       H    0.5325321196    0.6190782492    0.4427497651          0.1483
C579       C    0.7201364860    0.6476146344    0.2413498499          0.1483
C580       C    0.7640481462    0.6810275415    0.2339064361          0.1483
C581       C    0.7833638673    0.7218338832    0.2516101150          0.1483
C582       C    0.7587679282    0.7292273179    0.2767572077          0.1483
C583       C    0.7148562679    0.6958144108    0.2842006215          0.1483
C584       C    0.6955405468    0.6550080691    0.2664969426          0.1483
H585       H    0.7058378353    0.6174073425    0.2282445291          0.1483
H586       H    0.8158677335    0.7465672897    0.2461010868          0.1483
H587       H    0.7730665789    0.7594346098    0.2898625285          0.1483
H588       H    0.6630366807    0.6302746626    0.2720059708          0.1483
C569       C    0.3566997310    0.2890031984    0.1107986724          0.1483
C570       C    0.3481290535    0.2469529347    0.1004511655          0.1483
C571       C    0.3458452769    0.2365172617    0.0648430692          0.1483
C572       C    0.3521321779    0.2681318523    0.0395824799          0.1483
C573       C    0.3607028554    0.3101821160    0.0499299868          0.1483
C574       C    0.3629866320    0.3206177890    0.0855380831          0.1483
H575       H    0.3583903188    0.2967283070    0.1371579125          0.1483
H576       H    0.3395012196    0.2053914757    0.0571827545          0.1483
H577       H    0.3504415900    0.2604067437    0.0132232398          0.1483
H578       H    0.3693306893    0.3517435750    0.0931983978          0.1483
C559       C    0.3339638891    0.3880907448    0.4158545878          0.1483
C560       C    0.3466269335    0.3784425677    0.3838295642          0.1483
C561       C    0.3916356910    0.3944057477    0.3768833459          0.1483
C562       C    0.4239814041    0.4200171048    0.4019621513          0.1483
C563       C    0.4113183596    0.4296652820    0.4339871749          0.1483
C564       C    0.3663096022    0.4137021020    0.4409333932          0.1483
H565       H    0.3006457180    0.3762738454    0.4209965935          0.1483
H566       H    0.4010102559    0.3872647064    0.3531783174          0.1483
H567       H    0.4572995752    0.4318340043    0.3968201455          0.1483
H568       H    0.3569350373    0.4208431432    0.4646384217          0.1483
C549       C    0.2656837072    0.2562486559    0.2569316977          0.1483
C550       C    0.2967081168    0.2782008430    0.2837181639          0.1483
C551       C    0.3350954880    0.2754277452    0.2854607832          0.1483
C552       C    0.3424584495    0.2507024601    0.2604169361          0.1483
C553       C    0.3114340399    0.2287502729    0.2336304698          0.1483
C554       C    0.2730466687    0.2315233708    0.2318878506          0.1483
H555       H    0.2372670817    0.2583014686    0.2556417068          0.1483
H556       H    0.3580608606    0.2916765884    0.3052880855          0.1483
H557       H    0.3708750749    0.2486496474    0.2617069270          0.1483
H558       H    0.2500812961    0.2152745276    0.2120605483          0.1483
C539       C    0.1529016562    0.3482700422    0.3048378330          0.1483
C540       C    0.1234033166    0.3306932371    0.3331552471          0.1483
C541       C    0.1333860248    0.3122425254    0.3615914130          0.1483
C542       C    0.1728670727    0.3113686189    0.3617101647          0.1483
C543       C    0.2023654124    0.3289454240    0.3333927505          0.1483
C544       C    0.1923827041    0.3473961357    0.3049565846          0.1483
H545       H    0.1455118591    0.3619283612    0.2837876842          0.1483
H546       H    0.1115517746    0.2992316528    0.3825527622          0.1483
H547       H    0.1802568698    0.2977102999    0.3827603134          0.1483
H548       H    0.2142169543    0.3604070083    0.2839952354          0.1483
C529       C    0.9498496515    0.2353736081    0.2885460014          0.1483
C530       C    0.9789933596    0.2809691986    0.2828550345          0.1483
C531       C    0.9757553502    0.3008235052    0.2521472915          0.1483
C532       C    0.9433736327    0.2750822214    0.2271305152          0.1483
C533       C    0.9142299246    0.2294866310    0.2328214820          0.1483
C534       C    0.9174679340    0.2096323243    0.2635292251          0.1483
H535       H    0.9522466195    0.2206762642    0.3112777073          0.1483
H536       H    0.9973273169    0.3345738276    0.2479338863          0.1483
H537       H    0.9409766647    0.2897795653    0.2043988093          0.1483
H538       H    0.8958959673    0.1758820020    0.2677426303          0.1483
C519       C    0.0235858143    0.6925664282    0.9249390197          0.1483
C520       C    0.0444226887    0.6802628628    0.9499082619          0.1483
C521       C    0.0908404114    0.7003791050    0.9498362900          0.1483
C522       C    0.1164212598    0.7327989128    0.9247950759          0.1483
C523       C    0.0955843854    0.7451024782    0.8998258336          0.1483
C524       C    0.0491666627    0.7249862359    0.8998978055          0.1483
H525       H    0.9892246430    0.6776751840    0.9249922976          0.1483
H526       H    0.1062652608    0.6912726862    0.9683184321          0.1483
H527       H    0.1507824311    0.7476901570    0.9247417979          0.1483
H528       H    0.0337418133    0.7340926547    0.8814156634          0.1483
C509       C    0.9468140301    0.6707873883    0.0523228545          0.1483
C510       C    0.9439319128    0.6295089454    0.0500334842          0.1483
C511       C    0.9160790638    0.5950510179    0.0729155726          0.1483
C512       C    0.8911083321    0.6018715332    0.0980870314          0.1483
C513       C    0.8939904494    0.6431499760    0.1003764018          0.1483
C514       C    0.9218432985    0.6776079036    0.0774943133          0.1483
H515       H    0.9674323729    0.6962952048    0.0353841657          0.1483
H516       H    0.9139448493    0.5644957707    0.0712217129          0.1483
H517       H    0.8704899893    0.5763637167    0.1150257202          0.1483
H518       H    0.9239775129    0.7081631508    0.0791881730          0.1483
C499       C    0.9958296338    0.4764614102    0.0318493262          0.1483
C500       C    0.9963399534    0.4565982165    0.0001680090          0.1483
C501       C    0.9961142390    0.4762895978    0.9683960320          0.1483
C502       C    0.9953782049    0.5158441728    0.9683053722          0.1483
C503       C    0.9948678852    0.5357073666    0.9999866894          0.1483
C504       C    0.9950935997    0.5160159853    0.0317586664          0.1483
H505       H    0.9959967211    0.4618846734    0.0553688417          0.1483
H506       H    0.9964919686    0.4615875555    0.9449446282          0.1483
H507       H    0.9952111176    0.5304209096    0.9447858568          0.1483
H508       H    0.9947158700    0.5307180275    0.0552100703          0.1483
C489       C    0.1114787707    0.3924904662    0.9114639304          0.1483
C490       C    0.0977564804    0.3492975325    0.9000507252          0.1483
C491       C    0.0589373637    0.3128831722    0.9137160857          0.1483
C492       C    0.0338405372    0.3196617455    0.9387946514          0.1483
C493       C    0.0475628275    0.3628546792    0.9502078565          0.1483
C494       C    0.0863819443    0.3992690395    0.9365424960          0.1483
H495       H    0.1402150000    0.4194465511    0.9013480141          0.1483
H496       H    0.0487789446    0.2809107638    0.9052685043          0.1483
H497       H    0.0051043079    0.2927056606    0.9489105676          0.1483
H498       H    0.0965403633    0.4312414479    0.9449900774          0.1483
C479       C    0.9372061801    0.3247657403    0.0823715249          0.1483
C480       C    0.9469563980    0.3121567292    0.0503649318          0.1483
C481       C    0.9312082566    0.2671821424    0.0434588288          0.1483
C482       C    0.9057098973    0.2348165668    0.0685593189          0.1483
C483       C    0.8959596794    0.2474255779    0.1005659120          0.1483
C484       C    0.9117078208    0.2924001647    0.1074720150          0.1483
H485       H    0.9488638951    0.3580586162    0.0874838349          0.1483
H486       H    0.9384248349    0.2578475739    0.0197674438          0.1483
H487       H    0.8940521823    0.2015236909    0.0634470089          0.1483
H488       H    0.9044912425    0.3017347332    0.1311634000          0.1483
C469       C    0.2985552187    0.9018779198    0.9450827847          0.1483
C470       C    0.3113206508    0.9463852473    0.9507978892          0.1483
C471       C    0.2918222174    0.9656413088    0.9312769197          0.1483
C472       C    0.2595583517    0.9403900429    0.9060408456          0.1483
C473       C    0.2467929195    0.8958827154    0.9003257410          0.1483
C474       C    0.2662913530    0.8766266539    0.9198467105          0.1483
H475       H    0.3129891240    0.8876234327    0.9595333725          0.1483
H476       H    0.3012705278    0.9985860838    0.9355066020          0.1483
H477       H    0.2451244464    0.9546445300    0.8915902577          0.1483
H478       H    0.2568430426    0.8436818789    0.9156170282          0.1483
C459       C    0.3857085611    0.0583959156    0.0825680307          0.1483
C460       C    0.3621572138    0.0470128968    0.0509803105          0.1483
C461       C    0.3319540174    0.0609530997    0.0443364389          0.1483
C462       C    0.3253021682    0.0862763214    0.0692802874          0.1483
C463       C    0.3488535155    0.0976593401    0.1008680076          0.1483
C464       C    0.3790567119    0.0837191372    0.1075118792          0.1483
H465       H    0.4080667714    0.0480765446    0.0874862214          0.1483
H466       H    0.3145204380    0.0525278709    0.0209551104          0.1483
H467       H    0.3029439578    0.0965956923    0.0643620968          0.1483
H468       H    0.3964902913    0.0921443661    0.1308932077          0.1483
C449       C    0.5242489642    0.0116840977    0.0294707704          0.1483
C450       C    0.5356684926    0.9955864385    0.0001809728          0.1483
C451       C    0.5072996810    0.9797797676    0.9711492057          0.1483
C452       C    0.4675113410    0.9800707558    0.9714072363          0.1483
C453       C    0.4560918125    0.9961684149    0.0006970339          0.1483
C454       C    0.4844606241    0.0119750859    0.0297288009          0.1483
H455       H    0.5452492533    0.0233851398    0.0509618187          0.1483
H456       H    0.5157514776    0.9678638372    0.9494680829          0.1483
H457       H    0.4465110519    0.9683697136    0.9499161879          0.1483
H458       H    0.4760088275    0.0238910162    0.0514099238          0.1483
C439       C    0.6473625856    0.9633146837    0.9169897684          0.1483
C440       C    0.6298831191    0.9450773618    0.9498849091          0.1483
C441       C    0.6192353989    0.9016807616    0.9577972527          0.1483
C442       C    0.6260671453    0.8765214834    0.9328144555          0.1483
C443       C    0.6435466118    0.8947588053    0.8999193149          0.1483
C444       C    0.6541943320    0.9381554054    0.8920069713          0.1483
H445       H    0.6552446641    0.9954394396    0.9111325791          0.1483
H446       H    0.6062968230    0.8881801874    0.9821463693          0.1483
H447       H    0.6181850668    0.8443967274    0.9386716449          0.1483
H448       H    0.6671329079    0.9516559796    0.8676578547          0.1483
C429       C    0.7019902238    0.0274153306    0.0681022684          0.1483
C430       C    0.6804565786    0.0456583912    0.0499957473          0.1483
C431       C    0.6911852327    0.0893039842    0.0570828655          0.1483
C432       C    0.7234475320    0.1147065167    0.0822765047          0.1483
C433       C    0.7449811772    0.0964634562    0.1003830258          0.1483
C434       C    0.7342525231    0.0528178632    0.0932959077          0.1483
H435       H    0.6940482331    0.9951062553    0.0628559602          0.1483
H436       H    0.6752464446    0.1028088140    0.0436807072          0.1483
H437       H    0.7313895227    0.1470155921    0.0875228130          0.1483
H438       H    0.7501913113    0.0393130334    0.1066980659          0.1483
C419       C    0.9399817401    0.5664837237    0.5641322204          0.1483
C420       C    0.9769947102    0.5614781784    0.5667816120          0.1483
C421       C    0.0069579837    0.5813476995    0.5945416759          0.1483
C422       C    0.9999082871    0.6062227658    0.6196523482          0.1483
C423       C    0.9628953171    0.6112283110    0.6170029566          0.1483
C424       C    0.9329320436    0.5913587900    0.5892428927          0.1483
H425       H    0.9178011351    0.5517751173    0.5435825627          0.1483
H426       H    0.0343558008    0.5776432414    0.5965036246          0.1483
H427       H    0.0220888922    0.6209313722    0.6402020059          0.1483
H428       H    0.9055342264    0.5950632481    0.5872809439          0.1483
C409       C    0.0580255441    0.4462770161    0.4209188261          0.1483
C410       C    0.0149275692    0.4311165656    0.4333679992          0.1483
C411       C    0.9789949602    0.3911852267    0.4206841868          0.1483
C412       C    0.9861603260    0.3664143385    0.3955512012          0.1483
C413       C    0.0292583009    0.3815747890    0.3831020281          0.1483
C414       C    0.0651909100    0.4215061278    0.3957858406          0.1483
H415       H    0.0846250079    0.4758365786    0.4303081418          0.1483
H416       H    0.9470928551    0.3799622514    0.4298986190          0.1483
H417       H    0.9595608622    0.3368547760    0.3861618855          0.1483
H418       H    0.0970930150    0.4327291032    0.3865714083          0.1483
C399       C    0.3930186673    0.0153331492    0.5578218403          0.1483
C400       C    0.4313150659    0.0149410987    0.5674916941          0.1483
C401       C    0.4452147587    0.0220165918    0.6024474372          0.1483
C402       C    0.4208180531    0.0294841354    0.6277333264          0.1483
C403       C    0.3825216546    0.0298761858    0.6180634725          0.1483
C404       C    0.3686219617    0.0228006927    0.5831077295          0.1483
H405       H    0.3827292843    0.0100954465    0.5319455110          0.1483
H406       H    0.4735620567    0.0217266214    0.6096061349          0.1483
H407       H    0.4311074361    0.0347218380    0.6536096557          0.1483
H408       H    0.3402746637    0.0230906631    0.5759490318          0.1483
C389       C    0.6247856387    0.9712108873    0.4179037119          0.1483
C390       C    0.6102734319    0.9626254145    0.3831139737          0.1483
C391       C    0.5709323722    0.9610022684    0.3735371186          0.1483
C392       C    0.5461035194    0.9679645953    0.3987500017          0.1483
C393       C    0.5606157262    0.9765500681    0.4335397399          0.1483
C394       C    0.5999567858    0.9781732142    0.4431165950          0.1483
H395       H    0.6539082412    0.9724124370    0.4249930721          0.1483
H396       H    0.5601892433    0.9546472805    0.3477855749          0.1483
H397       H    0.5169809168    0.9667630456    0.3916606414          0.1483
H398       H    0.6106999147    0.9845282020    0.4688681386          0.1483
C379       C    0.6002029867    0.0127628164    0.6272090303          0.1483
C380       C    0.6437094423    0.0264185670    0.6167177153          0.1483
C381       C    0.6552195697    0.0334623825    0.5812217005          0.1483
C382       C    0.6232232415    0.0268504474    0.5562170005          0.1483
C383       C    0.5797167858    0.0131946968    0.5667083154          0.1483
C384       C    0.5682066584    0.0061508814    0.6022043303          0.1483
H385       H    0.5916825027    0.0075485634    0.6534853010          0.1483
H386       H    0.6874232578    0.0435705435    0.5734549431          0.1483
H387       H    0.6317437254    0.0320647004    0.5299407298          0.1483
H388       H    0.5360029703    0.9960427204    0.6099710877          0.1483
C369       C    0.6589774256    0.9371333459    0.7703392622          0.1483
C370       C    0.6801735404    0.9126881001    0.7668965899          0.1483
C371       C    0.7081560980    0.9201084448    0.7382660467          0.1483
C372       C    0.7149425408    0.9519740352    0.7130781758          0.1483
C373       C    0.6937464260    0.9764192809    0.7165208481          0.1483
C374       C    0.6657638684    0.9689989363    0.7451513913          0.1483
H375       H    0.6382630648    0.9316403635    0.7915333006          0.1483
H376       H    0.7238462724    0.9020143956    0.7357168869          0.1483
H377       H    0.7356569016    0.9574670176    0.6918841374          0.1483
H378       H    0.6500736940    0.9870929854    0.7477005511          0.1483
C359       C    0.8297280049    0.2026628630    0.6669610301          0.1483
C360       C    0.8700274818    0.2033683872    0.6668839410          0.1483
C361       C    0.8698523323    0.1633389180    0.6666975791          0.1483
C362       C    0.8293777058    0.1226039245    0.6665883062          0.1483
C363       C    0.7890782289    0.1218984002    0.6666653953          0.1483
C364       C    0.7892533784    0.1619278695    0.6668517572          0.1483
H365       H    0.8298576610    0.2322950675    0.6670989864          0.1483
H366       H    0.8996818563    0.1638598777    0.6666405121          0.1483
H367       H    0.8292480497    0.0929717200    0.6664503499          0.1483
H368       H    0.7594238543    0.1614069098    0.6669088242          0.1483
C349       C    0.9310142966    0.3400847353    0.5932536601          0.1483
C350       C    0.9649931850    0.3489088962    0.6169874258          0.1483
C351       C    0.0055155575    0.3895343390    0.6155519437          0.1483
C352       C    0.0120590415    0.4213356209    0.5903826958          0.1483
C353       C    0.9780801530    0.4125114599    0.5666489301          0.1483
C354       C    0.9375577806    0.3718860171    0.5680844122          0.1483
H355       H    0.9010172157    0.3100113555    0.5943162897          0.1483
H356       H    0.0306678923    0.3960672373    0.6331195473          0.1483
H357       H    0.0420561224    0.4514090006    0.5893200662          0.1483
H358       H    0.9124054457    0.3653531189    0.5505168086          0.1483
C339       C    0.0520331034    0.2957952523    0.7073457802          0.1483
C340       C    0.0152746525    0.2991351820    0.7168734054          0.1483
C341       C    0.0104948166    0.3092375761    0.7514726198          0.1483
C342       C    0.0424734315    0.3160000406    0.7765442090          0.1483
C343       C    0.0792318824    0.3126601109    0.7670165838          0.1483
C344       C    0.0840117183    0.3025577168    0.7324173694          0.1483
H345       H    0.0555714235    0.2883168567    0.6817333747          0.1483
H346       H    0.9832861906    0.3117100999    0.7585260291          0.1483
H347       H    0.0389351114    0.3234784362    0.8021566145          0.1483
H348       H    0.1112203443    0.3000851930    0.7253639601          0.1483
C329       C    0.4202048071    0.9761880690    0.3986964755          0.1483
C330       C    0.4117932099    0.9781819908    0.4342796709          0.1483
C331       C    0.3715193278    0.9739496355    0.4448602007          0.1483
C332       C    0.3396570428    0.9677233585    0.4198575352          0.1483
C333       C    0.3480686400    0.9657294367    0.3842743398          0.1483
C334       C    0.3883425221    0.9699617920    0.3736938100          0.1483
H335       H    0.4500179407    0.9793211112    0.3908641352          0.1483
H336       H    0.3652918189    0.9754253954    0.4711990903          0.1483
H337       H    0.3098439092    0.9645903163    0.4276898755          0.1483
H338       H    0.3945700310    0.9684860321    0.3473549204          0.1483
C319       C    0.3389978983    0.0390501610    0.2664002591          0.1483
C320       C    0.2984133460    0.0162725935    0.2844048707          0.1483
C321       C    0.2647449572    0.0253484703    0.2771684142          0.1483
C322       C    0.2716611208    0.0572019147    0.2519273462          0.1483
C323       C    0.3122456731    0.0799794823    0.2339227346          0.1483
C324       C    0.3459140619    0.0709036054    0.2411591911          0.1483
H325       H    0.3639212510    0.0323316548    0.2717571165          0.1483
H326       H    0.2347033503    0.0084888830    0.2904951347          0.1483
H327       H    0.2467377681    0.0639204210    0.2465704888          0.1483
H328       H    0.3759556688    0.0877631928    0.2278324706          0.1483
C309       C    0.1426488464    0.8096162290    0.3019893263          0.1483
C310       C    0.1219948984    0.7892123690    0.3335979262          0.1483
C311       C    0.1417757269    0.8095811757    0.3654396010          0.1483
C312       C    0.1822105033    0.8503538425    0.3656726759          0.1483
C313       C    0.2028644513    0.8707577026    0.3340640760          0.1483
C314       C    0.1830836228    0.8503888959    0.3022224012          0.1483
H315       H    0.1280058954    0.7945380214    0.2784182164          0.1483
H316       H    0.1264883740    0.7944789556    0.3888371820          0.1483
H317       H    0.1968534543    0.8654320501    0.3892437858          0.1483
H318       H    0.1983709757    0.8654911160    0.2788248202          0.1483
C299       C    0.0246411845    0.5754884644    0.3991317377          0.1483
C300       C    0.0137884242    0.5799583432    0.4335727662          0.1483
C301       C    0.0095536799    0.6162618608    0.4428506612          0.1483
C302       C    0.0161716961    0.6480954996    0.4176875276          0.1483
C303       C    0.0270244564    0.6436256208    0.3832464990          0.1483
C304       C    0.0312592006    0.6073221032    0.3739686041          0.1483
H305       H    0.0277759952    0.5486144318    0.3922636855          0.1483
H306       H    0.0015203713    0.6195715981    0.4683440818          0.1483
H307       H    0.0130368854    0.6749695322    0.4245555797          0.1483
H308       H    0.0392925093    0.6040123659    0.3484751835          0.1483
C289       C    0.9712739920    0.6678003281    0.2536156168          0.1483
C290       C    0.9768131813    0.6933905483    0.2834626822          0.1483
C291       C    0.9503264119    0.7121836104    0.2882720809          0.1483
C292       C    0.9183004533    0.7053864524    0.2632344140          0.1483
C293       C    0.9127612640    0.6797962322    0.2333873486          0.1483
C294       C    0.9392480334    0.6610031701    0.2285779499          0.1483
H295       H    0.9908810811    0.6538885808    0.2500554126          0.1483
H296       H    0.9544256619    0.7311259952    0.3103649249          0.1483
H297       H    0.8986933643    0.7192981997    0.2667946182          0.1483
H298       H    0.9351487834    0.6420607853    0.2064851059          0.1483
loop_
_geom_bond_atom_site_label_1
_geom_bond_atom_site_label_2
_geom_bond_distance
_geom_bond_site_symmetry_2
_ccdc_geom_bond_type
C1           C2 1.540       .   A
C1           C6 1.540       .   A
C1         C290 1.540       .   S
C2           C3 1.540       .   A
C2           H7 1.140       .   S
C3           C4 1.540       .   A
C3         C303 1.543       .   S
C4           C5 1.540       .   A
C4           H8 1.140       .   S
C5           C6 1.540       .   A
C5         C310 1.523       .   S
C6           H9 1.140       .   S
C10         C11 1.540       .   A
C10         C15 1.540       .   A
C10        C320 1.540       .   S
C11         C12 1.540       .   A
C11         H16 1.140       .   S
C12         C13 1.540       .   A
C12        C313 1.523       .   S
C13         C14 1.540       .   A
C13         H17 1.140       .   S
C14         C15 1.540       .   A
C14        C333 1.546       .   S
C15         H18 1.140       .   S
C19         C20 1.540       .   A
C19         C24 1.540       .   A
C19        C350 1.545       .   S
C20         C21 1.540       .   A
C20         H25 1.140       .   S
C21         C22 1.540       .   A
C21        C340 1.541       .   S
C22         C23 1.540       .   A
C22         H26 1.140       .   S
C23         C24 1.540       .   A
C23        C360 1.523       .   S
C24         H27 1.140       .   S
C28         C29 1.540       .   A
C28         C33 1.540       .   A
C28        C373 1.541       .   S
C29         C30 1.540       .   A
C29         H34 1.140       .   S
C30         C31 1.540       .   A
C30        C363 1.523       .   S
C31         C32 1.540       .   A
C31         H35 1.140       .   S
C32         C33 1.540       .   A
C32        C380 1.543       .   S
C33         H36 1.140       .   S
O37        Cu45 1.951       .   S
O37         C47 1.250       .   A
O38        Cu45 1.951       .   S
O38         C48 1.250       .   A
O39        Cu45 1.951       .   S
O39         C49 1.250       .   A
O40        Cu45 1.951       .   S
O40         C50 1.250       .   A
O41        Cu46 1.951       .   S
O41         C50 1.250       .   A
O42        Cu46 1.951       .   S
O42         C49 1.251       .   A
O43        Cu46 1.951       .   S
O43         C48 1.250       .   A
O44        Cu46 1.951       .   S
O44         C47 1.250       .   A
Cu45       Cu46 2.630       .   S
C47        C400 1.554       .   S
C48        C393 1.558       .   S
C49        C330 1.546       .   S
C50        C383 1.543   1_565   S
O51        Cu59 1.951       .   S
O51         C61 1.250       .   A
O52        Cu59 1.951       .   S
O52         C62 1.250       .   A
O53        Cu59 1.951       .   S
O53         C63 1.250       .   A
O54        Cu59 1.951       .   S
O54         C64 1.250       .   A
O55        Cu60 1.951       .   S
O55         C64 1.250       .   A
O56        Cu60 1.951       .   S
O56         C63 1.251       .   A
O57        Cu60 1.951       .   S
O57         C62 1.250       .   A
O58        Cu60 1.951       .   S
O58         C61 1.250       .   A
Cu59       Cu60 2.630       .   S
C61        C420 1.559       .   S
C62        C410 1.559       .   S
C63        C300 1.543   1_655   S
C64        C353 1.545       .   S
C65         C66 1.540       .   A
C65         C70 1.540       .   A
C65        C440 1.554       .   S
C66         C67 1.540       .   A
C66         H71 1.140       .   S
C67         C68 1.540       .   A
C67        C430 1.528       .   S
C68         C69 1.540       .   A
C68         H72 1.140       .   S
C69         C70 1.540       .   A
C69        C450 1.550       .   S
C70         H73 1.140       .   S
C74         C75 1.540       .   A
C74         C79 1.540       .   A
C74        C460 1.556       .   S
C75         C76 1.540       .   A
C75         H80 1.140       .   S
C76         C77 1.540       .   A
C76        C453 1.550       .   S
C77         C78 1.540       .   A
C77         H81 1.140       .   S
C78         C79 1.540       .   A
C78        C470 1.529       .   S
C79         H82 1.140       .   S
C83         C84 1.540       .   A
C83         C88 1.540       .   A
C83        C493 1.558       .   S
C84         C85 1.540       .   A
C84         H89 1.140       .   S
C85         C86 1.540       .   A
C85        C480 1.526       .   S
C86         C87 1.540       .   A
C86         H90 1.140       .   S
C87         C88 1.540       .   A
C87        C500 1.549       .   S
C88         H91 1.140       .   S
C92         C93 1.540       .   A
C92         C97 1.540       .   A
C92        C510 1.553       .   S
C93         C94 1.540       .   A
C93         H98 1.140       .   S
C94         C95 1.540       .   A
C94        C503 1.549   1_556   S
C95         C96 1.540       .   A
C95         H99 1.140       .   S
C96         C97 1.540       .   A
C96        C520 1.527       .   S
C97        H100 1.140       .   S
C101       C102 1.540       .   A
C101       C106 1.540       .   A
C101       C413 1.559   1_455   S
C102       C103 1.540       .   A
C102       H107 1.140       .   S
C103       C104 1.540       .   A
C103       C530 1.532       .   S
C104       C105 1.540       .   A
C104       H108 1.140       .   S
C105       C106 1.540       .   A
C105       C540 1.546       .   S
C106       H109 1.140       .   S
C110       C111 1.540       .   A
C110       C115 1.540       .   A
C110       C550 1.552       .   S
C111       C112 1.540       .   A
C111       H116 1.140       .   S
C112       C113 1.540       .   A
C112       C543 1.546       .   S
C113       C114 1.540       .   A
C113       H117 1.140       .   S
C114       C115 1.540       .   A
C114       C560 1.530       .   S
C115       H118 1.140       .   S
O119      Cu127 1.951       .   S
O119       C129 1.250       .   A
O120      Cu127 1.951       .   S
O120       C130 1.250       .   A
O121      Cu127 1.951       .   S
O121       C131 1.250       .   A
O122      Cu127 1.951       .   S
O122       C132 1.250       .   A
O123      Cu128 1.951       .   S
O123       C132 1.250       .   A
O124      Cu128 1.951       .   S
O124       C131 1.251       .   A
O125      Cu128 1.951       .   S
O125       C130 1.250       .   A
O126      Cu128 1.951       .   S
O126       C129 1.250       .   A
Cu127     Cu128 2.630       .   S
C129       C463 1.556   1_545   S
C130       C553 1.552       .   S
C131       C323 1.540   1_545   S
C132       C570 1.545       .   S
C133       C134 1.540       .   A
C133       C138 1.540       .   A
C133       C583 1.555       .   S
C134       C135 1.540       .   A
C134       H139 1.140       .   S
C135       C136 1.540       .   A
C135       C590 1.531       .   S
C136       C137 1.540       .   A
C136       H140 1.140       .   S
C137       C138 1.540       .   A
C137       C600 1.550       .   S
C138       H141 1.140       .   S
C142       C143 1.540       .   A
C142       C147 1.540       .   A
C142       C390 1.558       .   S
C143       C144 1.540       .   A
C143       H148 1.140       .   S
C144       C145 1.540       .   A
C144       C603 1.550       .   S
C145       C146 1.540       .   A
C145       H149 1.140       .   S
C146       C147 1.540       .   A
C146       C610 1.534       .   S
C147       H150 1.140       .   S
O151      Cu159 1.951       .   S
O151       C161 1.250       .   A
O152      Cu159 1.951       .   S
O152       C162 1.250       .   A
O153      Cu159 1.951       .   S
O153       C163 1.250       .   A
O154      Cu159 1.951       .   S
O154       C164 1.250       .   A
O155      Cu160 1.951       .   S
O155       C164 1.250       .   A
O156      Cu160 1.951       .   S
O156       C163 1.251       .   A
O157      Cu160 1.951       .   S
O157       C162 1.250       .   A
O158      Cu160 1.951       .   S
O158       C161 1.250       .   A
Cu159     Cu160 2.630       .   S
C161       C513 1.553   1_554   S
C162       C580 1.555       .   S
C163       C293 1.540   1_655   S
C164       C620 1.543       .   S
O165      Cu173 1.951       .   S
O165       C175 1.250       .   A
O166      Cu173 1.951       .   S
O166       C176 1.250       .   A
O167      Cu173 1.951       .   S
O167       C177 1.250       .   A
O168      Cu173 1.951       .   S
O168       C178 1.250       .   A
O169      Cu174 1.951       .   S
O169       C178 1.250       .   A
O170      Cu174 1.951       .   S
O170       C177 1.251       .   A
O171      Cu174 1.951       .   S
O171       C176 1.250       .   A
O172      Cu174 1.951       .   S
O172       C175 1.250       .   A
Cu173     Cu174 2.630       .   S
C175       C433 1.528   1_545   S
C176       C533 1.532   1_655   S
C177       C613 1.534   1_545   S
C178       C483 1.526       .   S
C179       C180 1.540       .   A
C179       C184 1.540       .   A
C179       C630 1.545       .   S
C180       C181 1.540       .   A
C180       H185 1.140       .   S
C181       C182 1.540       .   A
C181       C573 1.545   1_556   S
C182       C183 1.540       .   A
C182       H186 1.140       .   S
C183       C184 1.540       .   A
C183       C643 1.522       .   S
C184       H187 1.140       .   S
C188       C189 1.540       .   A
C188       C193 1.540       .   A
C188       C623 1.543       .   S
C189       C190 1.540       .   A
C189       H194 1.140       .   S
C190       C191 1.540       .   A
C190       C640 1.522   1_554   S
C191       C192 1.540       .   A
C191       H195 1.140       .   S
C192       C193 1.540       .   A
C192       C650 1.542       .   S
C193       H196 1.140       .   S
C197       C198 1.540       .   A
C197       C202 1.540       .   A
C197       C423 1.559       .   S
C198       C199 1.540       .   A
C198       H203 1.140       .   S
C199       C200 1.540       .   A
C199       C660 1.534       .   S
C200       C201 1.540       .   A
C200       H204 1.140       .   S
C201       C202 1.540       .   A
C201       C670 1.549       .   S
C202       H205 1.140       .   S
C206       C207 1.540       .   A
C206       C211 1.540       .   A
C206       C680 1.553       .   S
C207       C208 1.540       .   A
C207       H212 1.140       .   S
C208       C209 1.540       .   A
C208       C673 1.549       .   S
C209       C210 1.540       .   A
C209       H213 1.140       .   S
C210       C211 1.540       .   A
C210       C690 1.530       .   S
C211       H214 1.140       .   S
O215      Cu223 1.951       .   S
O215       C225 1.250       .   A
O216      Cu223 1.951       .   S
O216       C226 1.250       .   A
O217      Cu223 1.951       .   S
O217       C227 1.250       .   A
O218      Cu223 1.951       .   S
O218       C228 1.250       .   A
O219      Cu224 1.951       .   S
O219       C228 1.250       .   A
O220      Cu224 1.951       .   S
O220       C227 1.251       .   A
O221      Cu224 1.951       .   S
O221       C226 1.250       .   A
O222      Cu224 1.951       .   S
O222       C225 1.250       .   A
Cu223     Cu224 2.630       .   S
C225       C443 1.554   1_556   S
C226       C683 1.553       .   S
C227       C370 1.541   1_565   S
C228       C653 1.542   1_556   S
C229       C230 1.540       .   A
C229       C234 1.540       .   A
C229       C403 1.554   1_545   S
C230       C231 1.540       .   A
C230       H235 1.140       .   S
C231       C232 1.540       .   A
C231       C700 1.535       .   S
C232       C233 1.540       .   A
C232       H236 1.140       .   S
C233       C234 1.540       .   A
C233       C710 1.546       .   S
C234       H237 1.140       .   S
C238       C239 1.540       .   A
C238       C243 1.540       .   A
C238       C720 1.557       .   S
C239       C240 1.540       .   A
C239       H244 1.140       .   S
C240       C241 1.540       .   A
C240       C713 1.546       .   S
C241       C242 1.540       .   A
C241       H245 1.140       .   S
C242       C243 1.540       .   A
C242       C733 1.531       .   S
C243       H246 1.140       .   S
O247      Cu255 1.951       .   S
O247       C257 1.250       .   A
O248      Cu255 1.951       .   S
O248       C258 1.250       .   A
O249      Cu255 1.951       .   S
O249       C259 1.250       .   A
O250      Cu255 1.951       .   S
O250       C260 1.250       .   A
O251      Cu256 1.951       .   S
O251       C260 1.250       .   A
O252      Cu256 1.951       .   S
O252       C259 1.251       .   A
O253      Cu256 1.951       .   S
O253       C258 1.250       .   A
O254      Cu256 1.951       .   S
O254       C257 1.250       .   A
Cu255     Cu256 2.630       .   S
C257       C490 1.558   1_456   S
C258       C723 1.557       .   S
C259       C343 1.541   1_455   S
C260       C633 1.545       .   S
O261      Cu269 1.951       .   S
O261       C271 1.250       .   A
O262      Cu269 1.951       .   S
O262       C272 1.250       .   A
O263      Cu269 1.951       .   S
O263       C273 1.250       .   A
O264      Cu269 1.951       .   S
O264       C274 1.250       .   A
O265      Cu270 1.951       .   S
O265       C274 1.250       .   A
O266      Cu270 1.951       .   S
O266       C273 1.251       .   A
O267      Cu270 1.951       .   S
O267       C272 1.250       .   A
O268      Cu270 1.951       .   S
O268       C271 1.250       .   A
Cu269     Cu270 2.630       .   S
C271       C473 1.529   1_556   S
C272       C663 1.534   1_455   S
C273       C703 1.535   1_565   S
C274       C523 1.527   1_455   S
O275      Cu283 1.951       .   S
O275       C285 1.250       .   A
O276      Cu283 1.951       .   S
O276       C286 1.250       .   A
O277      Cu283 1.951       .   S
O277       C287 1.250       .   A
O278      Cu283 1.951       .   S
O278       C288 1.250       .   A
O279      Cu284 1.951       .   S
O279       C288 1.250       .   A
O280      Cu284 1.951       .   S
O280       C287 1.251       .   A
O281      Cu284 1.951       .   S
O281       C286 1.250       .   A
O282      Cu284 1.951       .   S
O282       C285 1.250       .   A
Cu283     Cu284 2.630       .   S
C285       C593 1.531       .   S
C286       C730 1.531       .   S
C287       C693 1.530       .   S
C288       C563 1.530       .   S
C729       C730 1.540       .   A
C729       C734 1.540       .   A
C729       H735 1.140       .   S
C730       C731 1.540       .   A
C731       C732 1.540       .   A
C731       H736 1.140       .   S
C732       C733 1.540       .   A
C732       H737 1.140       .   S
C733       C734 1.540       .   A
C734       H738 1.140       .   S
C719       C720 1.540       .   A
C719       C724 1.540       .   A
C719       H725 1.140       .   S
C720       C721 1.540       .   A
C721       C722 1.540       .   A
C721       H726 1.140       .   S
C722       C723 1.540       .   A
C722       H727 1.140       .   S
C723       C724 1.540       .   A
C724       H728 1.140       .   S
C709       C710 1.540       .   A
C709       C714 1.540       .   A
C709       H715 1.140       .   S
C710       C711 1.540       .   A
C711       C712 1.540       .   A
C711       H716 1.140       .   S
C712       C713 1.540       .   A
C712       H717 1.140       .   S
C713       C714 1.540       .   A
C714       H718 1.140       .   S
C699       C700 1.540       .   A
C699       C704 1.540       .   A
C699       H705 1.140       .   S
C700       C701 1.540       .   A
C701       C702 1.540       .   A
C701       H706 1.140       .   S
C702       C703 1.540       .   A
C702       H707 1.140       .   S
C703       C704 1.540       .   A
C704       H708 1.140       .   S
C689       C690 1.540       .   A
C689       C694 1.540       .   A
C689       H695 1.140       .   S
C690       C691 1.540       .   A
C691       C692 1.540       .   A
C691       H696 1.140       .   S
C692       C693 1.540       .   A
C692       H697 1.140       .   S
C693       C694 1.540       .   A
C694       H698 1.140       .   S
C679       C680 1.540       .   A
C679       C684 1.540       .   A
C679       H685 1.140       .   S
C680       C681 1.540       .   A
C681       C682 1.540       .   A
C681       H686 1.140       .   S
C682       C683 1.540       .   A
C682       H687 1.140       .   S
C683       C684 1.540       .   A
C684       H688 1.140       .   S
C669       C670 1.540       .   A
C669       C674 1.540       .   A
C669       H675 1.140       .   S
C670       C671 1.540       .   A
C671       C672 1.540       .   A
C671       H676 1.140       .   S
C672       C673 1.540       .   A
C672       H677 1.140       .   S
C673       C674 1.540       .   A
C674       H678 1.140       .   S
C659       C660 1.540       .   A
C659       C664 1.540       .   A
C659       H665 1.140       .   S
C660       C661 1.540       .   A
C661       C662 1.540       .   A
C661       H666 1.140       .   S
C662       C663 1.540       .   A
C662       H667 1.140       .   S
C663       C664 1.540       .   A
C664       H668 1.140       .   S
C649       C650 1.540       .   A
C649       C654 1.540       .   A
C649       H655 1.140       .   S
C650       C651 1.540       .   A
C651       C652 1.540       .   A
C651       H656 1.140       .   S
C652       C653 1.540       .   A
C652       H657 1.140       .   S
C653       C654 1.540       .   A
C654       H658 1.140       .   S
C639       C640 1.540       .   A
C639       C644 1.540       .   A
C639       H645 1.140       .   S
C640       C641 1.540       .   A
C641       C642 1.540       .   A
C641       H646 1.140       .   S
C642       C643 1.540       .   A
C642       H647 1.140       .   S
C643       C644 1.540       .   A
C644       H648 1.140       .   S
C629       C630 1.540       .   A
C629       C634 1.540       .   A
C629       H635 1.140       .   S
C630       C631 1.540       .   A
C631       C632 1.540       .   A
C631       H636 1.140       .   S
C632       C633 1.540       .   A
C632       H637 1.140       .   S
C633       C634 1.540       .   A
C634       H638 1.140       .   S
C619       C620 1.540       .   A
C619       C624 1.540       .   A
C619       H625 1.140       .   S
C620       C621 1.540       .   A
C621       C622 1.540       .   A
C621       H626 1.140       .   S
C622       C623 1.540       .   A
C622       H627 1.140       .   S
C623       C624 1.540       .   A
C624       H628 1.140       .   S
C609       C610 1.540       .   A
C609       C614 1.540       .   A
C609       H615 1.140       .   S
C610       C611 1.540       .   A
C611       C612 1.540       .   A
C611       H616 1.140       .   S
C612       C613 1.540       .   A
C612       H617 1.140       .   S
C613       C614 1.540       .   A
C614       H618 1.140       .   S
C599       C600 1.540       .   A
C599       C604 1.540       .   A
C599       H605 1.140       .   S
C600       C601 1.540       .   A
C601       C602 1.540       .   A
C601       H606 1.140       .   S
C602       C603 1.540       .   A
C602       H607 1.140       .   S
C603       C604 1.540       .   A
C604       H608 1.140       .   S
C589       C590 1.540       .   A
C589       C594 1.540       .   A
C589       H595 1.140       .   S
C590       C591 1.540       .   A
C591       C592 1.540       .   A
C591       H596 1.140       .   S
C592       C593 1.540       .   A
C592       H597 1.140       .   S
C593       C594 1.540       .   A
C594       H598 1.140       .   S
C579       C580 1.540       .   A
C579       C584 1.540       .   A
C579       H585 1.140       .   S
C580       C581 1.540       .   A
C581       C582 1.540       .   A
C581       H586 1.140       .   S
C582       C583 1.540       .   A
C582       H587 1.140       .   S
C583       C584 1.540       .   A
C584       H588 1.140       .   S
C569       C570 1.540       .   A
C569       C574 1.540       .   A
C569       H575 1.140       .   S
C570       C571 1.540       .   A
C571       C572 1.540       .   A
C571       H576 1.140       .   S
C572       C573 1.540       .   A
C572       H577 1.140       .   S
C573       C574 1.540       .   A
C574       H578 1.140       .   S
C559       C560 1.540       .   A
C559       C564 1.540       .   A
C559       H565 1.140       .   S
C560       C561 1.540       .   A
C561       C562 1.540       .   A
C561       H566 1.140       .   S
C562       C563 1.540       .   A
C562       H567 1.140       .   S
C563       C564 1.540       .   A
C564       H568 1.140       .   S
C549       C550 1.540       .   A
C549       C554 1.540       .   A
C549       H555 1.140       .   S
C550       C551 1.540       .   A
C551       C552 1.540       .   A
C551       H556 1.140       .   S
C552       C553 1.540       .   A
C552       H557 1.140       .   S
C553       C554 1.540       .   A
C554       H558 1.140       .   S
C539       C540 1.540       .   A
C539       C544 1.540       .   A
C539       H545 1.140       .   S
C540       C541 1.540       .   A
C541       C542 1.540       .   A
C541       H546 1.140       .   S
C542       C543 1.540       .   A
C542       H547 1.140       .   S
C543       C544 1.540       .   A
C544       H548 1.140       .   S
C529       C530 1.540       .   A
C529       C534 1.540       .   A
C529       H535 1.140       .   S
C530       C531 1.540       .   A
C531       C532 1.540       .   A
C531       H536 1.140       .   S
C532       C533 1.540       .   A
C532       H537 1.140       .   S
C533       C534 1.540       .   A
C534       H538 1.140       .   S
C519       C520 1.540       .   A
C519       C524 1.540       .   A
C519       H525 1.140       .   S
C520       C521 1.540       .   A
C521       C522 1.540       .   A
C521       H526 1.140       .   S
C522       C523 1.540       .   A
C522       H527 1.140       .   S
C523       C524 1.540       .   A
C524       H528 1.140       .   S
C509       C510 1.540       .   A
C509       C514 1.540       .   A
C509       H515 1.140       .   S
C510       C511 1.540       .   A
C511       C512 1.540       .   A
C511       H516 1.140       .   S
C512       C513 1.540       .   A
C512       H517 1.140       .   S
C513       C514 1.540       .   A
C514       H518 1.140       .   S
C499       C500 1.540       .   A
C499       C504 1.540       .   A
C499       H505 1.140       .   S
C500       C501 1.540       .   A
C501       C502 1.540       .   A
C501       H506 1.140       .   S
C502       C503 1.540       .   A
C502       H507 1.140       .   S
C503       C504 1.540       .   A
C504       H508 1.140       .   S
C489       C490 1.540       .   A
C489       C494 1.540       .   A
C489       H495 1.140       .   S
C490       C491 1.540       .   A
C491       C492 1.540       .   A
C491       H496 1.140       .   S
C492       C493 1.540       .   A
C492       H497 1.140       .   S
C493       C494 1.540       .   A
C494       H498 1.140       .   S
C479       C480 1.540       .   A
C479       C484 1.540       .   A
C479       H485 1.140       .   S
C480       C481 1.540       .   A
C481       C482 1.540       .   A
C481       H486 1.140       .   S
C482       C483 1.540       .   A
C482       H487 1.140       .   S
C483       C484 1.540       .   A
C484       H488 1.140       .   S
C469       C470 1.540       .   A
C469       C474 1.540       .   A
C469       H475 1.140       .   S
C470       C471 1.540       .   A
C471       C472 1.540       .   A
C471       H476 1.140       .   S
C472       C473 1.540       .   A
C472       H477 1.140       .   S
C473       C474 1.540       .   A
C474       H478 1.140       .   S
C459       C460 1.540       .   A
C459       C464 1.540       .   A
C459       H465 1.140       .   S
C460       C461 1.540       .   A
C461       C462 1.540       .   A
C461       H466 1.140       .   S
C462       C463 1.540       .   A
C462       H467 1.140       .   S
C463       C464 1.540       .   A
C464       H468 1.140       .   S
C449       C450 1.540       .   A
C449       C454 1.540       .   A
C449       H455 1.140       .   S
C450       C451 1.540       .   A
C451       C452 1.540       .   A
C451       H456 1.140       .   S
C452       C453 1.540       .   A
C452       H457 1.140       .   S
C453       C454 1.540       .   A
C454       H458 1.140       .   S
C439       C440 1.540       .   A
C439       C444 1.540       .   A
C439       H445 1.140       .   S
C440       C441 1.540       .   A
C441       C442 1.540       .   A
C441       H446 1.140       .   S
C442       C443 1.540       .   A
C442       H447 1.140       .   S
C443       C444 1.540       .   A
C444       H448 1.140       .   S
C429       C430 1.540       .   A
C429       C434 1.540       .   A
C429       H435 1.140       .   S
C430       C431 1.540       .   A
C431       C432 1.540       .   A
C431       H436 1.140       .   S
C432       C433 1.540       .   A
C432       H437 1.140       .   S
C433       C434 1.540       .   A
C434       H438 1.140       .   S
C419       C420 1.540       .   A
C419       C424 1.540       .   A
C419       H425 1.140       .   S
C420       C421 1.540       .   A
C421       C422 1.540       .   A
C421       H426 1.140       .   S
C422       C423 1.540       .   A
C422       H427 1.140       .   S
C423       C424 1.540       .   A
C424       H428 1.140       .   S
C409       C410 1.540       .   A
C409       C414 1.540       .   A
C409       H415 1.140       .   S
C410       C411 1.540       .   A
C411       C412 1.540       .   A
C411       H416 1.140       .   S
C412       C413 1.540       .   A
C412       H417 1.140       .   S
C413       C414 1.540       .   A
C414       H418 1.140       .   S
C399       C400 1.540       .   A
C399       C404 1.540       .   A
C399       H405 1.140       .   S
C400       C401 1.540       .   A
C401       C402 1.540       .   A
C401       H406 1.140       .   S
C402       C403 1.540       .   A
C402       H407 1.140       .   S
C403       C404 1.540       .   A
C404       H408 1.140       .   S
C389       C390 1.540       .   A
C389       C394 1.540       .   A
C389       H395 1.140       .   S
C390       C391 1.540       .   A
C391       C392 1.540       .   A
C391       H396 1.140       .   S
C392       C393 1.540       .   A
C392       H397 1.140       .   S
C393       C394 1.540       .   A
C394       H398 1.140       .   S
C379       C380 1.540       .   A
C379       C384 1.540       .   A
C379       H385 1.140       .   S
C380       C381 1.540       .   A
C381       C382 1.540       .   A
C381       H386 1.140       .   S
C382       C383 1.540       .   A
C382       H387 1.140       .   S
C383       C384 1.540       .   A
C384       H388 1.140       .   S
C369       C370 1.540       .   A
C369       C374 1.540       .   A
C369       H375 1.140       .   S
C370       C371 1.540       .   A
C371       C372 1.540       .   A
C371       H376 1.140       .   S
C372       C373 1.540       .   A
C372       H377 1.140       .   S
C373       C374 1.540       .   A
C374       H378 1.140       .   S
C359       C360 1.540       .   A
C359       C364 1.540       .   A
C359       H365 1.140       .   S
C360       C361 1.540       .   A
C361       C362 1.540       .   A
C361       H366 1.140       .   S
C362       C363 1.540       .   A
C362       H367 1.140       .   S
C363       C364 1.540       .   A
C364       H368 1.140       .   S
C349       C350 1.540       .   A
C349       C354 1.540       .   A
C349       H355 1.140       .   S
C350       C351 1.540       .   A
C351       C352 1.540       .   A
C351       H356 1.140       .   S
C352       C353 1.540       .   A
C352       H357 1.140       .   S
C353       C354 1.540       .   A
C354       H358 1.140       .   S
C339       C340 1.540       .   A
C339       C344 1.540       .   A
C339       H345 1.140       .   S
C340       C341 1.540       .   A
C341       C342 1.540       .   A
C341       H346 1.140       .   S
C342       C343 1.540       .   A
C342       H347 1.140       .   S
C343       C344 1.540       .   A
C344       H348 1.140       .   S
C329       C330 1.540       .   A
C329       C334 1.540       .   A
C329       H335 1.140       .   S
C330       C331 1.540       .   A
C331       C332 1.540       .   A
C331       H336 1.140       .   S
C332       C333 1.540       .   A
C332       H337 1.140       .   S
C333       C334 1.540       .   A
C334       H338 1.140       .   S
C319       C320 1.540       .   A
C319       C324 1.540       .   A
C319       H325 1.140       .   S
C320       C321 1.540       .   A
C321       C322 1.540       .   A
C321       H326 1.140       .   S
C322       C323 1.540       .   A
C322       H327 1.140       .   S
C323       C324 1.540       .   A
C324       H328 1.140       .   S
C309       C310 1.540       .   A
C309       C314 1.540       .   A
C309       H315 1.140       .   S
C310       C311 1.540       .   A
C311       C312 1.540       .   A
C311       H316 1.140       .   S
C312       C313 1.540       .   A
C312       H317 1.140       .   S
C313       C314 1.540       .   A
C314       H318 1.140       .   S
C299       C300 1.540       .   A
C299       C304 1.540       .   A
C299       H305 1.140       .   S
C300       C301 1.540       .   A
C301       C302 1.540       .   A
C301       H306 1.140       .   S
C302       C303 1.540       .   A
C302       H307 1.140       .   S
C303       C304 1.540       .   A
C304       H308 1.140       .   S
C289       C290 1.540       .   A
C289       C294 1.540       .   A
C289       H295 1.140       .   S
C290       C291 1.540       .   A
C291       C292 1.540       .   A
C291       H296 1.140       .   S
C292       C293 1.540       .   A
C292       H297 1.140       .   S
C293       C294 1.540       .   A
C294       H298 1.140       .   S
