data_fog_v1-3c_triazine_Ch_v2-4c_Cu_1_Ch_2-1B_4H_Ch
_audit_creation_date              2024-08-05
_audit_creation_method            'tobacco_3.0'
_symmetry_space_group_name_H-M    'P1'
_symmetry_Int_Tables_number       1
_symmetry_cell_setting            triclinic
loop_
_symmetry_equiv_pos_as_xyz
  x,y,z
_cell_length_a                    38.55855992828154
_cell_length_b                    38.558409105400486
_cell_length_c                    42.03661931797569
_cell_angle_alpha                 90.12348060006518
_cell_angle_beta                  89.87529672522699
_cell_angle_gamma                 121.08194243768104
loop_
_atom_site_label
_atom_site_type_symbol
_atom_site_fract_x
_atom_site_fract_y
_atom_site_fract_z
_atom_site_charge
C1         C    0.0088338629    0.7001865864    0.3084962236          0.1603
N2         N    0.0009887074    0.6675053570    0.3332325481          0.1603
C3         C    0.0336548445    0.6755187706    0.3580363245          0.1603
N4         N    0.0741661371    0.7162134136    0.3581037764          0.1603
C5         C    0.0820112926    0.7488946430    0.3333674519          0.1603
N6         N    0.0493451555    0.7408812294    0.3085636755          0.1603
C7         C    0.2914950345    0.9844092566    0.3096537776          0.1603
N8         N    0.2508677095    0.9438301017    0.3095739122          0.1603
C9         C    0.2428480571    0.9110754286    0.3342945502          0.1603
N10        N    0.2754557296    0.9188999104    0.3590950538          0.1603
C11        C    0.3160830546    0.9594790653    0.3591749192          0.1603
N12        N    0.3241027071    0.9922337384    0.3344542812          0.1603
C13        C    0.9584265245    0.3169949765    0.6422458213          0.1603
N14        N    0.9911176474    0.3250222087    0.6670271637          0.1603
C15        C    0.9832821655    0.2923697840    0.6917909403          0.1603
N16        N    0.9427555607    0.2516901271    0.6917733746          0.1603
C17        C    0.9100644379    0.2436628949    0.6669920323          0.1603
N18        N    0.9178999198    0.2763153196    0.6422282557          0.1603
C19        C    0.7005379886    0.0083089110    0.6913139752          0.1603
N20        N    0.7411268714    0.0489267327    0.6913212561          0.1603
C21        C    0.7490412728    0.0816038926    0.6665573040          0.1603
N22        N    0.7163667913    0.0736632308    0.6417860710          0.1603
C23        C    0.6757779085    0.0330454092    0.6417787901          0.1603
N24        N    0.6678635071    0.0003682493    0.6665427422          0.1603
O25        O    0.4821864108    0.0375871051    0.5269129554         -1.5661
O26        O    0.5436204508    0.0191989106    0.4628781949         -1.5759
O27        O    0.4727954006    0.0198424658    0.4631250342         -1.4621
O28        O    0.5530166269    0.0369435095    0.5266660954         -1.5462
O29        O    0.5186368803    0.9711577107    0.5379012773         -1.5418
O30        O    0.4384163959    0.9540580675    0.4743648462         -1.4543
O31        O    0.5092407041    0.9534131119    0.4741133768         -1.5794
O32        O    0.4478066642    0.9718013063    0.5381481373         -1.5672
Cu33      Cu    0.5160421093    0.0343957781    0.4938682751          1.0456
Cu34      Cu    0.4753850057    0.9566044388    0.5071580571          1.0433
C35        C    0.4559373239    0.0074045163    0.5419720318          0.0958
C36        C    0.5354897910    0.9835957006    0.4590543003          0.0872
C37        C    0.4437787953    0.9844323622    0.4593790915          0.0087
C38        C    0.5476483197    0.0065678547    0.5416472407          0.0714
O39        O    0.0197008974    0.5443109301    0.5375961700         -1.5661
O40        O    0.0378834572    0.4824405344    0.4738350806         -1.5759
O41        O    0.0374836953    0.5533928986    0.4738133166         -1.4621
O42        O    0.0201006957    0.4733533979    0.5376179353         -1.5462
O43        O    0.9543211908    0.4390925064    0.5263601600         -1.5418
O44        O    0.9717030019    0.5191313997    0.4625602077         -1.4543
O45        O    0.9721039523    0.4481796429    0.4625773053         -1.5794
O46        O    0.9539213924    0.5100500386    0.5263383947         -1.5672
Cu47      Cu    0.0347955206    0.5165009084    0.5067409479          1.0456
Cu48      Cu    0.9570093291    0.4759896646    0.4934325274          1.0433
C49        C    0.9841294225    0.5363031316    0.5413681178          0.0958
C50        C    0.0076754272    0.4561874414    0.4588053575          0.0872
C51        C    0.0071580361    0.5480651934    0.4587829408          0.0087
C52        C    0.9846468136    0.4444253796    0.5413905345          0.0714
C53        C    0.6229876729    0.9704712275    0.9751006482          0.1603
N54        N    0.6557114797    0.9955162561    0.0000897351          0.1603
C55        C    0.6484407339    0.0204499108    0.0249945645          0.1603
N56        N    0.6084461812    0.0203385369    0.0249103071          0.1603
C57        C    0.5757223743    0.9952935083    0.9999212202          0.1603
N58        N    0.5829931202    0.9703598536    0.9750163908          0.1603
C59        C    0.3688801312    0.0214191222    0.0257699622          0.1603
N60        N    0.4088240901    0.0214323742    0.0258640437          0.1603
C61        C    0.4160379308    0.9964613451    0.0009567864          0.1603
N62        N    0.3833078127    0.9714770640    0.9759554476          0.1603
C63        C    0.3433638539    0.9714638120    0.9758613660          0.1603
N64        N    0.3361500131    0.9964348411    0.0007686233          0.1603
C65        C    0.0221791137    0.3697107399    0.9755731007          0.1603
N66        N    0.9972455455    0.3370264573    0.0006199029          0.1603
C67        C    0.9722293307    0.3442361664    0.0254863508          0.1603
N68        N    0.9721466843    0.3841301580    0.0253059964          0.1603
C69        C    0.9970802525    0.4168144406    0.0002591942          0.1603
N70        N    0.0220964672    0.4096047315    0.9753927463          0.1603
C71        C    0.9691130880    0.6226309495    0.0246498902          0.1603
N72        N    0.9691402195    0.5827079236    0.0247851819          0.1603
C73        C    0.9941275861    0.5754911425    0.9998955043          0.1603
N74        N    0.0190878213    0.6081973874    0.9748705350          0.1603
C75        C    0.0190606899    0.6481204133    0.9747352433          0.1603
N76        N    0.9940733232    0.6553371943    0.9996249209          0.1603
C77        C    0.0365104429    0.3565039132    0.3576646699          0.1603
N78        N    0.0038843449    0.3315293668    0.3325913858          0.1603
C79        C    0.0112050301    0.3065753065    0.3077404395          0.1603
N80        N    0.0511518132    0.3065957925    0.3079627772          0.1603
C81        C    0.0837779112    0.3315703389    0.3330360613          0.1603
N82        N    0.0764572261    0.3565243993    0.3578870076          0.1603
C83        C    0.2892865056    0.3031230773    0.3089614977          0.1603
N84        N    0.2493531323    0.3031273733    0.3086767216          0.1603
C85        C    0.2419908177    0.3280683222    0.3335119364          0.1603
N86        N    0.2745618764    0.3530049750    0.3586319273          0.1603
C87        C    0.3144952497    0.3530006790    0.3589167034          0.1603
N88        N    0.3218575643    0.3280597301    0.3340814886          0.1603
O89        O    0.3723751228    0.1495253842    0.1410646178         -1.5661
O90        O    0.3543992120    0.2117490381    0.2046291118         -1.5759
O91        O    0.3546347667    0.1407122611    0.2048544895         -1.4621
O92        O    0.3721395574    0.2205673426    0.1408392263         -1.5462
O93        O    0.3063514716    0.1863740737    0.1296109887         -1.5418
O94        O    0.2888480811    0.1065196917    0.1936216217         -1.4543
O95        O    0.2886111262    0.1775557692    0.1934008742         -1.5794
O96        O    0.3065870370    0.1153321154    0.1298363802         -1.5672
Cu97      Cu    0.3693901559    0.1837588955    0.1738735204          1.0456
Cu98      Cu    0.2915960931    0.1433222579    0.1605919716          1.0433
C99        C    0.3421305980    0.1232531148    0.1260783559          0.0958
C100       C    0.3188556510    0.2038280387    0.2083871361          0.0872
C101       C    0.3191639846    0.1118428192    0.2086738277          0.0087
C102       C    0.3418222645    0.2152383342    0.1257916643          0.0714
C103       C    0.6900186567    0.7032804911    0.3095948017          0.1603
N104       N    0.6650758316    0.6706965322    0.3347057751          0.1603
C105       C    0.6401075514    0.6780351676    0.3595308497          0.1603
N106       N    0.6400820963    0.7179577619    0.3592449511          0.1603
C107       C    0.6650249213    0.7505417208    0.3341339777          0.1603
N108       N    0.6899932016    0.7432030854    0.3093089030          0.1603
C109       C    0.6353993670    0.9555797819    0.3575994132          0.1603
N110       N    0.6355021157    0.9156968202    0.3578501978          0.1603
C111       C    0.6605132759    0.9084416547    0.3330098202          0.1603
N112       N    0.6854216875    0.9410694508    0.3079186579          0.1603
C113       C    0.6853189388    0.9809524125    0.3076678733          0.1603
N114       N    0.6603077786    0.9882075781    0.3325082509          0.1603
O115       O    0.8768392750    0.6856019465    0.1295661473         -1.5661
O116       O    0.8151172890    0.7037748403    0.1934735788         -1.5759
O117       O    0.8860519564    0.7033411921    0.1933556696         -1.4621
O118       O    0.8058994408    0.6860356336    0.1296840653         -1.5462
O119       O    0.7716379085    0.6202482799    0.1409165908         -1.5418
O120       O    0.8517898073    0.6375526532    0.2045835283         -1.4543
O121       O    0.7808557567    0.6379874866    0.2047061043         -1.5794
O122       O    0.8425777427    0.6198145929    0.1407986728         -1.5672
Cu123     Cu    0.8491035211    0.7006924523    0.1604968480          1.0456
Cu124     Cu    0.8085915106    0.6228969809    0.1737754036          1.0433
C125       C    0.8688092742    0.6500279720    0.1257599957          0.0958
C126       C    0.7888857574    0.6735614612    0.2085122559          0.0872
C127       C    0.8807405824    0.6730001941    0.2083538073          0.0087
C128       C    0.7769544492    0.6505892391    0.1259184443          0.0714
O129       O    0.8051267318    0.1148625287    0.1290221094         -1.5661
O130       O    0.8862295832    0.1783491428    0.1927747915         -1.5759
O131       O    0.8138777040    0.1060094454    0.1927326905         -1.4621
O132       O    0.8774838884    0.1872074955    0.1290642138         -1.5462
O133       O    0.8451428495    0.2195482836    0.1405875985         -1.5418
O134       O    0.7815360816    0.1383508273    0.2042514136         -1.4543
O135       O    0.8538885443    0.2106899309    0.2042981763         -1.5794
O136       O    0.7727856929    0.1472033168    0.1405454942         -1.5672
Cu137     Cu    0.8486314003    0.1436559195    0.1598488886          1.0456
Cu138     Cu    0.8103838758    0.1818965401    0.1734713971          1.0433
C139       C    0.7769970220    0.1216719365    0.1253842086          0.0958
C140       C    0.8820182541    0.2038805231    0.2079360771          0.0872
C141       C    0.7883285294    0.1102063189    0.2078757927          0.0087
C142       C    0.8706867467    0.2153461407    0.1254444930          0.0714
C143       C    0.3422194140    0.3666792720    0.9751029899          0.1603
N144       N    0.3343303957    0.3339688434    0.9998243768          0.1603
C145       C    0.3670096444    0.3418967165    0.0245894879          0.1603
N146       N    0.4075779114    0.3825350182    0.0246332121          0.1603
C147       C    0.4154669297    0.4152454468    0.9999118252          0.1603
N148       N    0.3827876810    0.4073175737    0.9751467141          0.1603
C149       C    0.6496557724    0.6257300695    0.0255401133          0.1603
N150       N    0.6090688226    0.5851103917    0.0254912730          0.1603
C151       C    0.5764043735    0.5772111834    0.0007205474          0.1603
N152       N    0.5843268741    0.6099316530    0.9759986620          0.1603
C153       C    0.6249138239    0.6505513308    0.9760475023          0.1603
N154       N    0.6575782730    0.6584505391    0.0008182280          0.1603
C155       C    0.9557606048    0.6364033579    0.6424164508          0.1603
N156       N    0.9884007873    0.6614103738    0.6674715774          0.1603
C157       C    0.9810507370    0.6863133232    0.6923521421          0.1603
N158       N    0.9410605042    0.6862092566    0.6921775801          0.1603
C159       C    0.9084203217    0.6612022407    0.6671224534          0.1603
N160       N    0.9157703719    0.6362992913    0.6422418888          0.1603
C161       C    0.7022286242    0.6886636061    0.6918666109          0.1603
N162       N    0.7421828041    0.6886983111    0.6920818336          0.1603
C163       C    0.7495156409    0.6637652267    0.6672187882          0.1603
N164       N    0.7168942979    0.6387974373    0.6421405202          0.1603
C165       C    0.6769401180    0.6387627323    0.6419252975          0.1603
N166       N    0.6696072811    0.6636958167    0.6667883429          0.1603
O167       O    0.6859809274    0.8772734194    0.8709331590         -1.5661
O168       O    0.7038991963    0.8150483170    0.8073318637         -1.5759
O169       O    0.7036952227    0.8861016586    0.8071387738         -1.4621
O170       O    0.6861849232    0.8062149023    0.8711262627         -1.5462
O171       O    0.6203926902    0.7720480467    0.8599125487         -1.5418
O172       O    0.6379018061    0.8519342140    0.7959297270         -1.4543
O173       O    0.6381069633    0.7808814613    0.7961181497         -1.5794
O174       O    0.6201886944    0.8431065638    0.8597194450         -1.5672
Cu175     Cu    0.7009445600    0.8492774526    0.8401538166          1.0456
Cu176     Cu    0.6231433307    0.8088774281    0.8268974921          1.0433
C177       C    0.6504420580    0.8693649395    0.8747035758          0.0958
C178       C    0.6736458327    0.7887899412    0.7923477329          0.0872
C179       C    0.6733819778    0.8807984700    0.7921034628          0.0087
C180       C    0.6507059129    0.7773564107    0.8749478459          0.0714
C181       C    0.3578993965    0.0374127683    0.6435831349          0.1603
N182       N    0.3329917246    0.0048581095    0.6687229572          0.1603
C183       C    0.3079746685    0.0121818259    0.6935106333          0.1603
N184       N    0.3078652843    0.0520602010    0.6931584870          0.1603
C185       C    0.3327729561    0.0846148597    0.6680186647          0.1603
N186       N    0.3577900122    0.0772911434    0.6432309886          0.1603
C187       C    0.3011951833    0.2884278321    0.6905067527          0.1603
N188       N    0.3013658295    0.2485814236    0.6908727811          0.1603
C189       C    0.3263987993    0.2412836616    0.6660828529          0.1603
N190       N    0.3512611229    0.2738323081    0.6409268962          0.1603
C191       C    0.3510904767    0.3136787166    0.6405608679          0.1603
N192       N    0.3260575069    0.3209764786    0.6653507961          0.1603
O193       O    0.1493915796    0.3726388553    0.8596415518         -1.5661
O194       O    0.2110922725    0.3543684150    0.7957784747         -1.5759
O195       O    0.1401880189    0.3548603832    0.7958586595         -1.4621
O196       O    0.2203010049    0.3721468578    0.8595613585         -1.5462
O197       O    0.1859952923    0.3063661968    0.8708168760         -1.5418
O198       O    0.1058830344    0.2890811252    0.8071188067         -1.4543
O199       O    0.1767865599    0.2885877541    0.8070339922         -1.5794
O200       O    0.1150858670    0.3068581944    0.8708970693         -1.5672
Cu201     Cu    0.1833738562    0.3695059390    0.8266808614          1.0456
Cu202     Cu    0.1428042833    0.2917206704    0.8399946826          1.0433
C203       C    0.1231401942    0.3424414718    0.8746854810          0.0958
C204       C    0.2030379453    0.3187851375    0.7919900629          0.0872
C205       C    0.1112243694    0.3194255089    0.7920990489          0.0087
C206       C    0.2149537701    0.3418011005    0.8745764951          0.0714
O207       O    0.2189398497    0.8452618006    0.8600953086         -1.5661
O208       O    0.1379829316    0.7820378011    0.7961755121         -1.5759
O209       O    0.2104212016    0.8542900777    0.7963749612         -1.4621
O210       O    0.1464963027    0.7730042542    0.8598958424         -1.5462
O211       O    0.1142423889    0.8054427170    0.8713806779         -1.5418
O212       O    0.1781679598    0.8867278283    0.8078644215         -1.4543
O213       O    0.1057290178    0.8144762639    0.8076603477         -1.5794
O214       O    0.1866859359    0.8777002634    0.8715801442         -1.5672
Cu215     Cu    0.1814028275    0.8106882320    0.8270853312          1.0456
Cu216     Cu    0.1432660400    0.8490498325    0.8406703251          1.0433
C217       C    0.2147497165    0.8708041507    0.8752622642          0.0958
C218       C    0.1099191510    0.7889339138    0.7924933921          0.0872
C219       C    0.2037224833    0.8824931368    0.7927568041          0.0087
C220       C    0.1209463842    0.7772449277    0.8749988522          0.0714
O221       O    0.5116439631    0.5529246424    0.4742438000         -1.5661
O222       O    0.4477612485    0.4716519933    0.5377775775         -1.5759
O223       O    0.5201705182    0.5439335205    0.5379694053         -1.4621
O224       O    0.4392294122    0.4806378495    0.4740519608         -1.5462
O225       O    0.4715262188    0.4482369783    0.4625861860         -1.5418
O226       O    0.5524666493    0.5115333560    0.5264990053         -1.4543
O227       O    0.4800580551    0.4392511220    0.5263118026         -1.5794
O228       O    0.5439407696    0.5205237711    0.4627780252         -1.5672
Cu229     Cu    0.4767539445    0.5152431541    0.5070590198          1.0456
Cu230     Cu    0.5149480737    0.4769326103    0.4934965829          1.0649
C231       C    0.5372126066    0.5487075782    0.4591432949          0.0958
C232       C    0.4544894116    0.4434681862    0.5414123078          0.0872
C233       C    0.5482519747    0.5370685937    0.5416555670          0.0087
C234       C    0.4434500435    0.4551071707    0.4589000356          0.0714
C675       C    0.3955550210    0.3685264207    0.5552560991          0.1603
C676       C    0.4287145687    0.4111148241    0.5661276354          0.1603
C677       C    0.4359494919    0.4211618548    0.6018581241          0.1603
C678       C    0.4100248673    0.3886204821    0.6267170765          0.1603
C679       C    0.3768653196    0.3460320787    0.6158455402          0.1603
C680       C    0.3696303964    0.3359850480    0.5801150515          0.1603
H681       H    0.3901992987    0.3610890084    0.5288062568          0.1603
H682       H    0.4604943002    0.4526859575    0.6099063275          0.1603
H683       H    0.4153805896    0.3960578944    0.6531669188          0.1603
H684       H    0.3450855881    0.3044609453    0.5720668482          0.1603
C665       C    0.2905242131    0.3034470412    0.7509502497          0.1603
C666       C    0.2765180793    0.2960597745    0.7160200440          0.1603
C667       C    0.2381104305    0.2962192181    0.7063182022          0.1603
C668       C    0.2137089156    0.3037659284    0.7315465660          0.1603
C669       C    0.2277150494    0.3111531951    0.7664767716          0.1603
C670       C    0.2661226981    0.3109937515    0.7761786135          0.1603
H671       H    0.3189558491    0.3033290115    0.7581321326          0.1603
H672       H    0.2277419246    0.2907511946    0.6804626810          0.1603
H673       H    0.1852772795    0.3038839581    0.7243646830          0.1603
H674       H    0.2764912041    0.3164617750    0.8020341346          0.1603
C655       C    0.3707204180    0.1654271251    0.6683344914          0.1603
C656       C    0.3311763136    0.1238583356    0.6675337692          0.1603
C657       C    0.2900417733    0.1213804711    0.6662500366          0.1603
C658       C    0.2884513374    0.1604713962    0.6657670261          0.1603
C659       C    0.3279954418    0.2020401858    0.6665677483          0.1603
C660       C    0.3691299821    0.2045180502    0.6678514810          0.1603
H661       H    0.4011706621    0.1672613884    0.6692847871          0.1603
H662       H    0.2607700660    0.0906113224    0.6656573042          0.1603
H663       H    0.2580010933    0.1586371329    0.6648167305          0.1603
H664       H    0.3984016894    0.2352871990    0.6684442133          0.1603
C645       C    0.2358119544    0.9532171988    0.7136405783          0.1603
C646       C    0.2819510961    0.9798087588    0.7182845975          0.1603
C647       C    0.3019877176    0.9739290413    0.7477777379          0.1603
C648       C    0.2758851974    0.9414577639    0.7726268591          0.1603
C649       C    0.2297460557    0.9148662039    0.7679828398          0.1603
C650       C    0.2097094342    0.9207459214    0.7384896994          0.1603
H651       H    0.2209796502    0.9575697169    0.6918079938          0.1603
H652       H    0.3361403804    0.9936118334    0.7512161578          0.1603
H653       H    0.2907175016    0.9371052458    0.7944594435          0.1603
H654       H    0.1755567714    0.9010631292    0.7350512795          0.1603
C635       C    0.6469480480    0.6311860398    0.5837302803          0.1603
C636       C    0.6448758712    0.6134243766    0.6169418507          0.1603
C637       C    0.6105238696    0.5701539998    0.6250020026          0.1603
C638       C    0.5782440447    0.5446452862    0.5998505842          0.1603
C639       C    0.5803162215    0.5624069495    0.5666390138          0.1603
C640       C    0.6146682231    0.6056773263    0.5585788619          0.1603
H641       H    0.6723774518    0.6632173577    0.5777636744          0.1603
H642       H    0.6089889645    0.5570055104    0.6495853440          0.1603
H643       H    0.5528146409    0.5126139683    0.6058171901          0.1603
H644       H    0.6162031281    0.6188258157    0.5339955205          0.1603
C625       C    0.7027537802    0.7560242085    0.7085215076          0.1603
C626       C    0.6950532410    0.7137991784    0.7170912484          0.1603
C627       C    0.6802366893    0.6965017435    0.7506769127          0.1603
C628       C    0.6731206767    0.7214293388    0.7756928362          0.1603
C629       C    0.6808212159    0.7636543689    0.7671230955          0.1603
C630       C    0.6956377676    0.7809518038    0.7335374312          0.1603
H631       H    0.7137218769    0.7688288032    0.6836593925          0.1603
H632       H    0.6745363086    0.6652463788    0.7570212672          0.1603
H633       H    0.6621525799    0.7086247441    0.8005549514          0.1603
H634       H    0.7013381482    0.8122071685    0.7271930766          0.1603
C615       C    0.8429292849    0.6511979434    0.6976828867          0.1603
C616       C    0.8685742088    0.6618449218    0.6671466099          0.1603
C617       C    0.8546129052    0.6731307121    0.6366343440          0.1603
C618       C    0.8150066777    0.6737695240    0.6366583549          0.1603
C619       C    0.7893617538    0.6631225456    0.6671946318          0.1603
C620       C    0.8033230574    0.6518367553    0.6977068977          0.1603
H621       H    0.8532642758    0.6428435272    0.7202698887          0.1603
H622       H    0.8735947449    0.6810119248    0.6140305347          0.1603
H623       H    0.8046716867    0.6821239402    0.6140713529          0.1603
H624       H    0.7843412177    0.6439555426    0.7203107069          0.1603
C605       C    0.0545553770    0.7477599170    0.7068394769          0.1603
C606       C    0.0131996986    0.7119142080    0.7173345028          0.1603
C607       C    0.0041292656    0.7017779095    0.7529177930          0.1603
C608       C    0.0364145111    0.7274873200    0.7780060573          0.1603
C609       C    0.0777701895    0.7633330290    0.7675110315          0.1603
C610       C    0.0868406224    0.7734693275    0.7319277413          0.1603
H611       H    0.0612698533    0.7552634106    0.6804985998          0.1603
H612       H    0.9735176524    0.6752447223    0.7606872999          0.1603
H613       H    0.0297000347    0.7199838263    0.8043469345          0.1603
H614       H    0.1174522357    0.8000025146    0.7241582343          0.1603
C595       C    0.6192015511    0.6692238915    0.9159341746          0.1603
C596       C    0.6313670069    0.6822779734    0.9507523590          0.1603
C597       C    0.6499753242    0.7270079527    0.9603158585          0.1603
C598       C    0.6564181857    0.7586838500    0.9350611736          0.1603
C599       C    0.6442527298    0.7456297681    0.9002429892          0.1603
C600       C    0.6256444125    0.7008997888    0.8906794897          0.1603
H601       H    0.6054265629    0.6361120886    0.9088547009          0.1603
H602       H    0.6589807403    0.7366719534    0.9860884575          0.1603
H603       H    0.6701931738    0.7917956529    0.9421406473          0.1603
H604       H    0.6166389964    0.6912357881    0.8649068907          0.1603
C585       C    0.5362337672    0.4969324272    0.0001266324          0.1603
C586       C    0.5364107188    0.5369619935    0.0005195764          0.1603
C587       C    0.4961126032    0.5362578814    0.0007091303          0.1603
C588       C    0.4556375360    0.4955242030    0.0005057402          0.1603
C589       C    0.4554605844    0.4554946367    0.0001127962          0.1603
C590       C    0.4957587000    0.4561987488    0.9999232423          0.1603
H591       H    0.5660648397    0.4974536530    0.9999863133          0.1603
H592       H    0.4962423069    0.5658876018    0.0009999920          0.1603
H593       H    0.4258064635    0.4950029772    0.0006460593          0.1603
H594       H    0.4956289963    0.4265690284    0.9996323805          0.1603
C575       C    0.3170684804    0.3543792311    0.9147234594          0.1603
C576       C    0.3103512085    0.3604496042    0.9499304539          0.1603
C577       C    0.2718693202    0.3603105593    0.9600467370          0.1603
C578       C    0.2401047037    0.3541011414    0.9349560256          0.1603
C579       C    0.2468219757    0.3480307683    0.8997490311          0.1603
C580       C    0.2853038640    0.3481698131    0.8896327480          0.1603
H581       H    0.3455550731    0.3544821604    0.9072347823          0.1603
H582       H    0.2668960015    0.3648038236    0.9861071494          0.1603
H583       H    0.2116181111    0.3539982121    0.9424447027          0.1603
H584       H    0.2902771826    0.3436765489    0.8635723356          0.1603
C565       C    0.7472865936    0.6812711876    0.0846612313          0.1603
C566       C    0.7450943099    0.6443675200    0.1007958925          0.1603
C567       C    0.7111128271    0.6012559866    0.0918639400          0.1603
C568       C    0.6793236280    0.5950481210    0.0667973264          0.1603
C569       C    0.6815159117    0.6319517886    0.0506626652          0.1603
C570       C    0.7154973945    0.6750633219    0.0595946177          0.1603
H571       H    0.7724417172    0.7131849201    0.0912731961          0.1603
H572       H    0.7094890310    0.5739386587    0.1038064761          0.1603
H573       H    0.6541685044    0.5631343885    0.0601853615          0.1603
H574       H    0.7171211906    0.7023806499    0.0476520815          0.1603
C555       C    0.6916519989    0.0152364130    0.2513685924          0.1603
C556       C    0.7110181819    0.0131991921    0.2827713474          0.1603
C557       C    0.7561899172    0.0435421448    0.2891745880          0.1603
C558       C    0.7819954693    0.0759223184    0.2641750736          0.1603
C559       C    0.7626292863    0.0779595393    0.2327723186          0.1603
C560       C    0.7174575511    0.0476165867    0.2263690780          0.1603
H561       H    0.6582131819    0.9927747468    0.2466285312          0.1603
H562       H    0.7705261266    0.0420351613    0.3124189983          0.1603
H563       H    0.8154342863    0.0983839847    0.2689151348          0.1603
H564       H    0.7031213416    0.0491235701    0.2031246677          0.1603
C545       C    0.7037015968    0.8314998080    0.3341554053          0.1603
C546       C    0.6638933255    0.7901456534    0.3338520203          0.1603
C547       C    0.6229608274    0.7881375331    0.3332685139          0.1603
C548       C    0.6218366004    0.8274835674    0.3329883926          0.1603
C549       C    0.6616448717    0.8688377220    0.3332917776          0.1603
C550       C    0.7025773699    0.8708458423    0.3338752839          0.1603
H551       H    0.7340022773    0.8329863386    0.3345873515          0.1603
H552       H    0.5934935911    0.7575272713    0.3330439310          0.1603
H553       H    0.5915359200    0.8259970368    0.3325564463          0.1603
H554       H    0.7320446062    0.9014561041    0.3340998669          0.1603
C535       C    0.5822033182    0.6490740590    0.4035637382          0.1603
C536       C    0.6144570072    0.6457952646    0.3843631039          0.1603
C537       C    0.6209137681    0.6100925784    0.3901364380          0.1603
C538       C    0.5951168398    0.5776686868    0.4151104064          0.1603
C539       C    0.5628631508    0.5809474812    0.4343110407          0.1603
C540       C    0.5564063899    0.6166501673    0.4285377066          0.1603
H541       H    0.5774236381    0.6755033201    0.3992899714          0.1603
H542       H    0.6447880384    0.6076644966    0.3759243795          0.1603
H543       H    0.5998965199    0.5512394256    0.4193841732          0.1603
H544       H    0.5325321196    0.6190782492    0.4427497651          0.1603
C525       C    0.7201364860    0.6476146344    0.2413498499          0.1603
C526       C    0.7640481462    0.6810275415    0.2339064361          0.1603
C527       C    0.7833638673    0.7218338832    0.2516101150          0.1603
C528       C    0.7587679282    0.7292273179    0.2767572077          0.1603
C529       C    0.7148562679    0.6958144108    0.2842006215          0.1603
C530       C    0.6955405468    0.6550080691    0.2664969426          0.1603
H531       H    0.7058378353    0.6174073425    0.2282445291          0.1603
H532       H    0.8158677335    0.7465672897    0.2461010868          0.1603
H533       H    0.7730665789    0.7594346098    0.2898625285          0.1603
H534       H    0.6630366807    0.6302746626    0.2720059708          0.1603
C515       C    0.3566997310    0.2890031984    0.1107986724          0.1603
C516       C    0.3481290535    0.2469529347    0.1004511655          0.1603
C517       C    0.3458452769    0.2365172617    0.0648430692          0.1603
C518       C    0.3521321779    0.2681318523    0.0395824799          0.1603
C519       C    0.3607028554    0.3101821160    0.0499299868          0.1603
C520       C    0.3629866320    0.3206177890    0.0855380831          0.1603
H521       H    0.3583903188    0.2967283070    0.1371579125          0.1603
H522       H    0.3395012196    0.2053914757    0.0571827545          0.1603
H523       H    0.3504415900    0.2604067437    0.0132232398          0.1603
H524       H    0.3693306893    0.3517435750    0.0931983978          0.1603
C505       C    0.3339638891    0.3880907448    0.4158545878          0.1603
C506       C    0.3466269335    0.3784425677    0.3838295642          0.1603
C507       C    0.3916356910    0.3944057477    0.3768833459          0.1603
C508       C    0.4239814041    0.4200171048    0.4019621513          0.1603
C509       C    0.4113183596    0.4296652820    0.4339871749          0.1603
C510       C    0.3663096022    0.4137021020    0.4409333932          0.1603
H511       H    0.3006457180    0.3762738454    0.4209965935          0.1603
H512       H    0.4010102559    0.3872647064    0.3531783174          0.1603
H513       H    0.4572995752    0.4318340043    0.3968201455          0.1603
H514       H    0.3569350373    0.4208431432    0.4646384217          0.1603
C495       C    0.2656837072    0.2562486559    0.2569316977          0.1603
C496       C    0.2967081168    0.2782008430    0.2837181639          0.1603
C497       C    0.3350954880    0.2754277452    0.2854607832          0.1603
C498       C    0.3424584495    0.2507024601    0.2604169361          0.1603
C499       C    0.3114340399    0.2287502729    0.2336304698          0.1603
C500       C    0.2730466687    0.2315233708    0.2318878506          0.1603
H501       H    0.2372670817    0.2583014686    0.2556417068          0.1603
H502       H    0.3580608606    0.2916765884    0.3052880855          0.1603
H503       H    0.3708750749    0.2486496474    0.2617069270          0.1603
H504       H    0.2500812961    0.2152745276    0.2120605483          0.1603
C485       C    0.1529016562    0.3482700422    0.3048378330          0.1603
C486       C    0.1234033166    0.3306932371    0.3331552471          0.1603
C487       C    0.1333860248    0.3122425254    0.3615914130          0.1603
C488       C    0.1728670727    0.3113686189    0.3617101647          0.1603
C489       C    0.2023654124    0.3289454240    0.3333927505          0.1603
C490       C    0.1923827041    0.3473961357    0.3049565846          0.1603
H491       H    0.1455118591    0.3619283612    0.2837876842          0.1603
H492       H    0.1115517746    0.2992316528    0.3825527622          0.1603
H493       H    0.1802568698    0.2977102999    0.3827603134          0.1603
H494       H    0.2142169543    0.3604070083    0.2839952354          0.1603
C475       C    0.9498496515    0.2353736081    0.2885460014          0.1603
C476       C    0.9789933596    0.2809691986    0.2828550345          0.1603
C477       C    0.9757553502    0.3008235052    0.2521472915          0.1603
C478       C    0.9433736327    0.2750822214    0.2271305152          0.1603
C479       C    0.9142299246    0.2294866310    0.2328214820          0.1603
C480       C    0.9174679340    0.2096323243    0.2635292251          0.1603
H481       H    0.9522466195    0.2206762642    0.3112777073          0.1603
H482       H    0.9973273169    0.3345738276    0.2479338863          0.1603
H483       H    0.9409766647    0.2897795653    0.2043988093          0.1603
H484       H    0.8958959673    0.1758820020    0.2677426303          0.1603
C465       C    0.0235858143    0.6925664282    0.9249390197          0.1603
C466       C    0.0444226887    0.6802628628    0.9499082619          0.1603
C467       C    0.0908404114    0.7003791050    0.9498362900          0.1603
C468       C    0.1164212598    0.7327989128    0.9247950759          0.1603
C469       C    0.0955843854    0.7451024782    0.8998258336          0.1603
C470       C    0.0491666627    0.7249862359    0.8998978055          0.1603
H471       H    0.9892246430    0.6776751840    0.9249922976          0.1603
H472       H    0.1062652608    0.6912726862    0.9683184321          0.1603
H473       H    0.1507824311    0.7476901570    0.9247417979          0.1603
H474       H    0.0337418133    0.7340926547    0.8814156634          0.1603
C455       C    0.9468140301    0.6707873883    0.0523228545          0.1603
C456       C    0.9439319128    0.6295089454    0.0500334842          0.1603
C457       C    0.9160790638    0.5950510179    0.0729155726          0.1603
C458       C    0.8911083321    0.6018715332    0.0980870314          0.1603
C459       C    0.8939904494    0.6431499760    0.1003764018          0.1603
C460       C    0.9218432985    0.6776079036    0.0774943133          0.1603
H461       H    0.9674323729    0.6962952048    0.0353841657          0.1603
H462       H    0.9139448493    0.5644957707    0.0712217129          0.1603
H463       H    0.8704899893    0.5763637167    0.1150257202          0.1603
H464       H    0.9239775129    0.7081631508    0.0791881730          0.1603
C445       C    0.9958296338    0.4764614102    0.0318493262          0.1603
C446       C    0.9963399534    0.4565982165    0.0001680090          0.1603
C447       C    0.9961142390    0.4762895978    0.9683960320          0.1603
C448       C    0.9953782049    0.5158441728    0.9683053722          0.1603
C449       C    0.9948678852    0.5357073666    0.9999866894          0.1603
C450       C    0.9950935997    0.5160159853    0.0317586664          0.1603
H451       H    0.9959967211    0.4618846734    0.0553688417          0.1603
H452       H    0.9964919686    0.4615875555    0.9449446282          0.1603
H453       H    0.9952111176    0.5304209096    0.9447858568          0.1603
H454       H    0.9947158700    0.5307180275    0.0552100703          0.1603
C435       C    0.1114787707    0.3924904662    0.9114639304          0.1603
C436       C    0.0977564804    0.3492975325    0.9000507252          0.1603
C437       C    0.0589373637    0.3128831722    0.9137160857          0.1603
C438       C    0.0338405372    0.3196617455    0.9387946514          0.1603
C439       C    0.0475628275    0.3628546792    0.9502078565          0.1603
C440       C    0.0863819443    0.3992690395    0.9365424960          0.1603
H441       H    0.1402150000    0.4194465511    0.9013480141          0.1603
H442       H    0.0487789446    0.2809107638    0.9052685043          0.1603
H443       H    0.0051043079    0.2927056606    0.9489105676          0.1603
H444       H    0.0965403633    0.4312414479    0.9449900774          0.1603
C425       C    0.9372061801    0.3247657403    0.0823715249          0.1603
C426       C    0.9469563980    0.3121567292    0.0503649318          0.1603
C427       C    0.9312082566    0.2671821424    0.0434588288          0.1603
C428       C    0.9057098973    0.2348165668    0.0685593189          0.1603
C429       C    0.8959596794    0.2474255779    0.1005659120          0.1603
C430       C    0.9117078208    0.2924001647    0.1074720150          0.1603
H431       H    0.9488638951    0.3580586162    0.0874838349          0.1603
H432       H    0.9384248349    0.2578475739    0.0197674438          0.1603
H433       H    0.8940521823    0.2015236909    0.0634470089          0.1603
H434       H    0.9044912425    0.3017347332    0.1311634000          0.1603
C415       C    0.2985552187    0.9018779198    0.9450827847          0.1603
C416       C    0.3113206508    0.9463852473    0.9507978892          0.1603
C417       C    0.2918222174    0.9656413088    0.9312769197          0.1603
C418       C    0.2595583517    0.9403900429    0.9060408456          0.1603
C419       C    0.2467929195    0.8958827154    0.9003257410          0.1603
C420       C    0.2662913530    0.8766266539    0.9198467105          0.1603
H421       H    0.3129891240    0.8876234327    0.9595333725          0.1603
H422       H    0.3012705278    0.9985860838    0.9355066020          0.1603
H423       H    0.2451244464    0.9546445300    0.8915902577          0.1603
H424       H    0.2568430426    0.8436818789    0.9156170282          0.1603
C405       C    0.3857085611    0.0583959156    0.0825680307          0.1603
C406       C    0.3621572138    0.0470128968    0.0509803105          0.1603
C407       C    0.3319540174    0.0609530997    0.0443364389          0.1603
C408       C    0.3253021682    0.0862763214    0.0692802874          0.1603
C409       C    0.3488535155    0.0976593401    0.1008680076          0.1603
C410       C    0.3790567119    0.0837191372    0.1075118792          0.1603
H411       H    0.4080667714    0.0480765446    0.0874862214          0.1603
H412       H    0.3145204380    0.0525278709    0.0209551104          0.1603
H413       H    0.3029439578    0.0965956923    0.0643620968          0.1603
H414       H    0.3964902913    0.0921443661    0.1308932077          0.1603
C395       C    0.5242489642    0.0116840977    0.0294707704          0.1603
C396       C    0.5356684926    0.9955864385    0.0001809728          0.1603
C397       C    0.5072996810    0.9797797676    0.9711492057          0.1603
C398       C    0.4675113410    0.9800707558    0.9714072363          0.1603
C399       C    0.4560918125    0.9961684149    0.0006970339          0.1603
C400       C    0.4844606241    0.0119750859    0.0297288009          0.1603
H401       H    0.5452492533    0.0233851398    0.0509618187          0.1603
H402       H    0.5157514776    0.9678638372    0.9494680829          0.1603
H403       H    0.4465110519    0.9683697136    0.9499161879          0.1603
H404       H    0.4760088275    0.0238910162    0.0514099238          0.1603
C385       C    0.6473625856    0.9633146837    0.9169897684          0.1603
C386       C    0.6298831191    0.9450773618    0.9498849091          0.1603
C387       C    0.6192353989    0.9016807616    0.9577972527          0.1603
C388       C    0.6260671453    0.8765214834    0.9328144555          0.1603
C389       C    0.6435466118    0.8947588053    0.8999193149          0.1603
C390       C    0.6541943320    0.9381554054    0.8920069713          0.1603
H391       H    0.6552446641    0.9954394396    0.9111325791          0.1603
H392       H    0.6062968230    0.8881801874    0.9821463693          0.1603
H393       H    0.6181850668    0.8443967274    0.9386716449          0.1603
H394       H    0.6671329079    0.9516559796    0.8676578547          0.1603
C375       C    0.7019902238    0.0274153306    0.0681022684          0.1603
C376       C    0.6804565786    0.0456583912    0.0499957473          0.1603
C377       C    0.6911852327    0.0893039842    0.0570828655          0.1603
C378       C    0.7234475320    0.1147065167    0.0822765047          0.1603
C379       C    0.7449811772    0.0964634562    0.1003830258          0.1603
C380       C    0.7342525231    0.0528178632    0.0932959077          0.1603
H381       H    0.6940482331    0.9951062553    0.0628559602          0.1603
H382       H    0.6752464446    0.1028088140    0.0436807072          0.1603
H383       H    0.7313895227    0.1470155921    0.0875228130          0.1603
H384       H    0.7501913113    0.0393130334    0.1066980659          0.1603
C365       C    0.9399817401    0.5664837237    0.5641322204          0.1603
C366       C    0.9769947102    0.5614781784    0.5667816120          0.1603
C367       C    0.0069579837    0.5813476995    0.5945416759          0.1603
C368       C    0.9999082871    0.6062227658    0.6196523482          0.1603
C369       C    0.9628953171    0.6112283110    0.6170029566          0.1603
C370       C    0.9329320436    0.5913587900    0.5892428927          0.1603
H371       H    0.9178011351    0.5517751173    0.5435825627          0.1603
H372       H    0.0343558008    0.5776432414    0.5965036246          0.1603
H373       H    0.0220888922    0.6209313722    0.6402020059          0.1603
H374       H    0.9055342264    0.5950632481    0.5872809439          0.1603
C355       C    0.0580255441    0.4462770161    0.4209188261          0.1603
C356       C    0.0149275692    0.4311165656    0.4333679992          0.1603
C357       C    0.9789949602    0.3911852267    0.4206841868          0.1603
C358       C    0.9861603260    0.3664143385    0.3955512012          0.1603
C359       C    0.0292583009    0.3815747890    0.3831020281          0.1603
C360       C    0.0651909100    0.4215061278    0.3957858406          0.1603
H361       H    0.0846250079    0.4758365786    0.4303081418          0.1603
H362       H    0.9470928551    0.3799622514    0.4298986190          0.1603
H363       H    0.9595608622    0.3368547760    0.3861618855          0.1603
H364       H    0.0970930150    0.4327291032    0.3865714083          0.1603
C345       C    0.3930186673    0.0153331492    0.5578218403          0.1603
C346       C    0.4313150659    0.0149410987    0.5674916941          0.1603
C347       C    0.4452147587    0.0220165918    0.6024474372          0.1603
C348       C    0.4208180531    0.0294841354    0.6277333264          0.1603
C349       C    0.3825216546    0.0298761858    0.6180634725          0.1603
C350       C    0.3686219617    0.0228006927    0.5831077295          0.1603
H351       H    0.3827292843    0.0100954465    0.5319455110          0.1603
H352       H    0.4735620567    0.0217266214    0.6096061349          0.1603
H353       H    0.4311074361    0.0347218380    0.6536096557          0.1603
H354       H    0.3402746637    0.0230906631    0.5759490318          0.1603
C335       C    0.6247856387    0.9712108873    0.4179037119          0.1603
C336       C    0.6102734319    0.9626254145    0.3831139737          0.1603
C337       C    0.5709323722    0.9610022684    0.3735371186          0.1603
C338       C    0.5461035194    0.9679645953    0.3987500017          0.1603
C339       C    0.5606157262    0.9765500681    0.4335397399          0.1603
C340       C    0.5999567858    0.9781732142    0.4431165950          0.1603
H341       H    0.6539082412    0.9724124370    0.4249930721          0.1603
H342       H    0.5601892433    0.9546472805    0.3477855749          0.1603
H343       H    0.5169809168    0.9667630456    0.3916606414          0.1603
H344       H    0.6106999147    0.9845282020    0.4688681386          0.1603
C325       C    0.6002029867    0.0127628164    0.6272090303          0.1603
C326       C    0.6437094423    0.0264185670    0.6167177153          0.1603
C327       C    0.6552195697    0.0334623825    0.5812217005          0.1603
C328       C    0.6232232415    0.0268504474    0.5562170005          0.1603
C329       C    0.5797167858    0.0131946968    0.5667083154          0.1603
C330       C    0.5682066584    0.0061508814    0.6022043303          0.1603
H331       H    0.5916825027    0.0075485634    0.6534853010          0.1603
H332       H    0.6874232578    0.0435705435    0.5734549431          0.1603
H333       H    0.6317437254    0.0320647004    0.5299407298          0.1603
H334       H    0.5360029703    0.9960427204    0.6099710877          0.1603
C315       C    0.6589774256    0.9371333459    0.7703392622          0.1603
C316       C    0.6801735404    0.9126881001    0.7668965899          0.1603
C317       C    0.7081560980    0.9201084448    0.7382660467          0.1603
C318       C    0.7149425408    0.9519740352    0.7130781758          0.1603
C319       C    0.6937464260    0.9764192809    0.7165208481          0.1603
C320       C    0.6657638684    0.9689989363    0.7451513913          0.1603
H321       H    0.6382630648    0.9316403635    0.7915333006          0.1603
H322       H    0.7238462724    0.9020143956    0.7357168869          0.1603
H323       H    0.7356569016    0.9574670176    0.6918841374          0.1603
H324       H    0.6500736940    0.9870929854    0.7477005511          0.1603
C305       C    0.8297280049    0.2026628630    0.6669610301          0.1603
C306       C    0.8700274818    0.2033683872    0.6668839410          0.1603
C307       C    0.8698523323    0.1633389180    0.6666975791          0.1603
C308       C    0.8293777058    0.1226039245    0.6665883062          0.1603
C309       C    0.7890782289    0.1218984002    0.6666653953          0.1603
C310       C    0.7892533784    0.1619278695    0.6668517572          0.1603
H311       H    0.8298576610    0.2322950675    0.6670989864          0.1603
H312       H    0.8996818563    0.1638598777    0.6666405121          0.1603
H313       H    0.8292480497    0.0929717200    0.6664503499          0.1603
H314       H    0.7594238543    0.1614069098    0.6669088242          0.1603
C295       C    0.9310142966    0.3400847353    0.5932536601          0.1603
C296       C    0.9649931850    0.3489088962    0.6169874258          0.1603
C297       C    0.0055155575    0.3895343390    0.6155519437          0.1603
C298       C    0.0120590415    0.4213356209    0.5903826958          0.1603
C299       C    0.9780801530    0.4125114599    0.5666489301          0.1603
C300       C    0.9375577806    0.3718860171    0.5680844122          0.1603
H301       H    0.9010172157    0.3100113555    0.5943162897          0.1603
H302       H    0.0306678923    0.3960672373    0.6331195473          0.1603
H303       H    0.0420561224    0.4514090006    0.5893200662          0.1603
H304       H    0.9124054457    0.3653531189    0.5505168086          0.1603
C285       C    0.0520331034    0.2957952523    0.7073457802          0.1603
C286       C    0.0152746525    0.2991351820    0.7168734054          0.1603
C287       C    0.0104948166    0.3092375761    0.7514726198          0.1603
C288       C    0.0424734315    0.3160000406    0.7765442090          0.1603
C289       C    0.0792318824    0.3126601109    0.7670165838          0.1603
C290       C    0.0840117183    0.3025577168    0.7324173694          0.1603
H291       H    0.0555714235    0.2883168567    0.6817333747          0.1603
H292       H    0.9832861906    0.3117100999    0.7585260291          0.1603
H293       H    0.0389351114    0.3234784362    0.8021566145          0.1603
H294       H    0.1112203443    0.3000851930    0.7253639601          0.1603
C275       C    0.4202048071    0.9761880690    0.3986964755          0.1603
C276       C    0.4117932099    0.9781819908    0.4342796709          0.1603
C277       C    0.3715193278    0.9739496355    0.4448602007          0.1603
C278       C    0.3396570428    0.9677233585    0.4198575352          0.1603
C279       C    0.3480686400    0.9657294367    0.3842743398          0.1603
C280       C    0.3883425221    0.9699617920    0.3736938100          0.1603
H281       H    0.4500179407    0.9793211112    0.3908641352          0.1603
H282       H    0.3652918189    0.9754253954    0.4711990903          0.1603
H283       H    0.3098439092    0.9645903163    0.4276898755          0.1603
H284       H    0.3945700310    0.9684860321    0.3473549204          0.1603
C265       C    0.3389978983    0.0390501610    0.2664002591          0.1603
C266       C    0.2984133460    0.0162725935    0.2844048707          0.1603
C267       C    0.2647449572    0.0253484703    0.2771684142          0.1603
C268       C    0.2716611208    0.0572019147    0.2519273462          0.1603
C269       C    0.3122456731    0.0799794823    0.2339227346          0.1603
C270       C    0.3459140619    0.0709036054    0.2411591911          0.1603
H271       H    0.3639212510    0.0323316548    0.2717571165          0.1603
H272       H    0.2347033503    0.0084888830    0.2904951347          0.1603
H273       H    0.2467377681    0.0639204210    0.2465704888          0.1603
H274       H    0.3759556688    0.0877631928    0.2278324706          0.1603
C255       C    0.1426488464    0.8096162290    0.3019893263          0.1603
C256       C    0.1219948984    0.7892123690    0.3335979262          0.1603
C257       C    0.1417757269    0.8095811757    0.3654396010          0.1603
C258       C    0.1822105033    0.8503538425    0.3656726759          0.1603
C259       C    0.2028644513    0.8707577026    0.3340640760          0.1603
C260       C    0.1830836228    0.8503888959    0.3022224012          0.1603
H261       H    0.1280058954    0.7945380214    0.2784182164          0.1603
H262       H    0.1264883740    0.7944789556    0.3888371820          0.1603
H263       H    0.1968534543    0.8654320501    0.3892437858          0.1603
H264       H    0.1983709757    0.8654911160    0.2788248202          0.1603
C245       C    0.0246411845    0.5754884644    0.3991317377          0.1603
C246       C    0.0137884242    0.5799583432    0.4335727662          0.1603
C247       C    0.0095536799    0.6162618608    0.4428506612          0.1603
C248       C    0.0161716961    0.6480954996    0.4176875276          0.1603
C249       C    0.0270244564    0.6436256208    0.3832464990          0.1603
C250       C    0.0312592006    0.6073221032    0.3739686041          0.1603
H251       H    0.0277759952    0.5486144318    0.3922636855          0.1603
H252       H    0.0015203713    0.6195715981    0.4683440818          0.1603
H253       H    0.0130368854    0.6749695322    0.4245555797          0.1603
H254       H    0.0392925093    0.6040123659    0.3484751835          0.1603
C235       C    0.9712739920    0.6678003281    0.2536156168          0.1603
C236       C    0.9768131813    0.6933905483    0.2834626822          0.1603
C237       C    0.9503264119    0.7121836104    0.2882720809          0.1603
C238       C    0.9183004533    0.7053864524    0.2632344140          0.1603
C239       C    0.9127612640    0.6797962322    0.2333873486          0.1603
C240       C    0.9392480334    0.6610031701    0.2285779499          0.1603
H241       H    0.9908810811    0.6538885808    0.2500554126          0.1603
H242       H    0.9544256619    0.7311259952    0.3103649249          0.1603
H243       H    0.8986933643    0.7192981997    0.2667946182          0.1603
H244       H    0.9351487834    0.6420607853    0.2064851059          0.1603
loop_
_geom_bond_atom_site_label_1
_geom_bond_atom_site_label_2
_geom_bond_distance
_geom_bond_site_symmetry_2
_ccdc_geom_bond_type
C1           N2 1.540       .   A
C1           N6 1.540       .   A
C1         C236 1.540       .   S
N2           C3 1.540       .   A
C3           N4 1.540       .   A
C3         C249 1.543       .   S
N4           C5 1.540       .   A
C5           N6 1.540       .   A
C5         C256 1.523       .   S
C7           N8 1.540       .   A
C7          N12 1.540       .   A
C7         C266 1.540       .   S
N8           C9 1.540       .   A
C9          N10 1.540       .   A
C9         C259 1.523       .   S
N10         C11 1.540       .   A
C11         N12 1.540       .   A
C11        C279 1.546       .   S
C13         N14 1.540       .   A
C13         N18 1.540       .   A
C13        C296 1.545       .   S
N14         C15 1.540       .   A
C15         N16 1.540       .   A
C15        C286 1.541       .   S
N16         C17 1.540       .   A
C17         N18 1.540       .   A
C17        C306 1.523       .   S
C19         N20 1.540       .   A
C19         N24 1.540       .   A
C19        C319 1.541       .   S
N20         C21 1.540       .   A
C21         N22 1.540       .   A
C21        C309 1.523       .   S
N22         C23 1.540       .   A
C23         N24 1.540       .   A
C23        C326 1.543       .   S
O25        Cu33 1.951       .   S
O25         C35 1.250       .   A
O26        Cu33 1.951       .   S
O26         C36 1.250       .   A
O27        Cu33 1.951       .   S
O27         C37 1.250       .   A
O28        Cu33 1.951       .   S
O28         C38 1.250       .   A
O29        Cu34 1.951       .   S
O29         C38 1.250       .   A
O30        Cu34 1.951       .   S
O30         C37 1.251       .   A
O31        Cu34 1.951       .   S
O31         C36 1.250       .   A
O32        Cu34 1.951       .   S
O32         C35 1.250       .   A
Cu33       Cu34 2.630       .   S
C35        C346 1.554       .   S
C36        C339 1.558       .   S
C37        C276 1.546       .   S
C38        C329 1.543   1_565   S
O39        Cu47 1.951       .   S
O39         C49 1.250       .   A
O40        Cu47 1.951       .   S
O40         C50 1.250       .   A
O41        Cu47 1.951       .   S
O41         C51 1.250       .   A
O42        Cu47 1.951       .   S
O42         C52 1.250       .   A
O43        Cu48 1.951       .   S
O43         C52 1.250       .   A
O44        Cu48 1.951       .   S
O44         C51 1.251       .   A
O45        Cu48 1.951       .   S
O45         C50 1.250       .   A
O46        Cu48 1.951       .   S
O46         C49 1.250       .   A
Cu47       Cu48 2.630       .   S
C49        C366 1.559       .   S
C50        C356 1.559       .   S
C51        C246 1.543   1_655   S
C52        C299 1.545       .   S
C53         N54 1.540       .   A
C53         N58 1.540       .   A
C53        C386 1.554       .   S
N54         C55 1.540       .   A
C55         N56 1.540       .   A
C55        C376 1.528       .   S
N56         C57 1.540       .   A
C57         N58 1.540       .   A
C57        C396 1.550       .   S
C59         N60 1.540       .   A
C59         N64 1.540       .   A
C59        C406 1.556       .   S
N60         C61 1.540       .   A
C61         N62 1.540       .   A
C61        C399 1.550       .   S
N62         C63 1.540       .   A
C63         N64 1.540       .   A
C63        C416 1.529       .   S
C65         N66 1.540       .   A
C65         N70 1.540       .   A
C65        C439 1.558       .   S
N66         C67 1.540       .   A
C67         N68 1.540       .   A
C67        C426 1.526       .   S
N68         C69 1.540       .   A
C69         N70 1.540       .   A
C69        C446 1.549       .   S
C71         N72 1.540       .   A
C71         N76 1.540       .   A
C71        C456 1.553       .   S
N72         C73 1.540       .   A
C73         N74 1.540       .   A
C73        C449 1.549   1_556   S
N74         C75 1.540       .   A
C75         N76 1.540       .   A
C75        C466 1.527       .   S
C77         N78 1.540       .   A
C77         N82 1.540       .   A
C77        C359 1.559   1_455   S
N78         C79 1.540       .   A
C79         N80 1.540       .   A
C79        C476 1.532       .   S
N80         C81 1.540       .   A
C81         N82 1.540       .   A
C81        C486 1.546       .   S
C83         N84 1.540       .   A
C83         N88 1.540       .   A
C83        C496 1.552       .   S
N84         C85 1.540       .   A
C85         N86 1.540       .   A
C85        C489 1.546       .   S
N86         C87 1.540       .   A
C87         N88 1.540       .   A
C87        C506 1.530       .   S
O89        Cu97 1.951       .   S
O89         C99 1.250       .   A
O90        Cu97 1.951       .   S
O90        C100 1.250       .   A
O91        Cu97 1.951       .   S
O91        C101 1.250       .   A
O92        Cu97 1.951       .   S
O92        C102 1.250       .   A
O93        Cu98 1.951       .   S
O93        C102 1.250       .   A
O94        Cu98 1.951       .   S
O94        C101 1.251       .   A
O95        Cu98 1.951       .   S
O95        C100 1.250       .   A
O96        Cu98 1.951       .   S
O96         C99 1.250       .   A
Cu97       Cu98 2.630       .   S
C99        C409 1.556   1_545   S
C100       C499 1.552       .   S
C101       C269 1.540   1_545   S
C102       C516 1.545       .   S
C103       N104 1.540       .   A
C103       N108 1.540       .   A
C103       C529 1.555       .   S
N104       C105 1.540       .   A
C105       N106 1.540       .   A
C105       C536 1.531       .   S
N106       C107 1.540       .   A
C107       N108 1.540       .   A
C107       C546 1.550       .   S
C109       N110 1.540       .   A
C109       N114 1.540       .   A
C109       C336 1.558       .   S
N110       C111 1.540       .   A
C111       N112 1.540       .   A
C111       C549 1.550       .   S
N112       C113 1.540       .   A
C113       N114 1.540       .   A
C113       C556 1.534       .   S
O115      Cu123 1.951       .   S
O115       C125 1.250       .   A
O116      Cu123 1.951       .   S
O116       C126 1.250       .   A
O117      Cu123 1.951       .   S
O117       C127 1.250       .   A
O118      Cu123 1.951       .   S
O118       C128 1.250       .   A
O119      Cu124 1.951       .   S
O119       C128 1.250       .   A
O120      Cu124 1.951       .   S
O120       C127 1.251       .   A
O121      Cu124 1.951       .   S
O121       C126 1.250       .   A
O122      Cu124 1.951       .   S
O122       C125 1.250       .   A
Cu123     Cu124 2.630       .   S
C125       C459 1.553   1_554   S
C126       C526 1.555       .   S
C127       C239 1.540   1_655   S
C128       C566 1.543       .   S
O129      Cu137 1.951       .   S
O129       C139 1.250       .   A
O130      Cu137 1.951       .   S
O130       C140 1.250       .   A
O131      Cu137 1.951       .   S
O131       C141 1.250       .   A
O132      Cu137 1.951       .   S
O132       C142 1.250       .   A
O133      Cu138 1.951       .   S
O133       C142 1.250       .   A
O134      Cu138 1.951       .   S
O134       C141 1.251       .   A
O135      Cu138 1.951       .   S
O135       C140 1.250       .   A
O136      Cu138 1.951       .   S
O136       C139 1.250       .   A
Cu137     Cu138 2.630       .   S
C139       C379 1.528   1_545   S
C140       C479 1.532   1_655   S
C141       C559 1.534   1_545   S
C142       C429 1.526       .   S
C143       N144 1.540       .   A
C143       N148 1.540       .   A
C143       C576 1.545       .   S
N144       C145 1.540       .   A
C145       N146 1.540       .   A
C145       C519 1.545   1_556   S
N146       C147 1.540       .   A
C147       N148 1.540       .   A
C147       C589 1.522       .   S
C149       N150 1.540       .   A
C149       N154 1.540       .   A
C149       C569 1.543       .   S
N150       C151 1.540       .   A
C151       N152 1.540       .   A
C151       C586 1.522   1_554   S
N152       C153 1.540       .   A
C153       N154 1.540       .   A
C153       C596 1.542       .   S
C155       N156 1.540       .   A
C155       N160 1.540       .   A
C155       C369 1.559       .   S
N156       C157 1.540       .   A
C157       N158 1.540       .   A
C157       C606 1.534       .   S
N158       C159 1.540       .   A
C159       N160 1.540       .   A
C159       C616 1.549       .   S
C161       N162 1.540       .   A
C161       N166 1.540       .   A
C161       C626 1.553       .   S
N162       C163 1.540       .   A
C163       N164 1.540       .   A
C163       C619 1.549       .   S
N164       C165 1.540       .   A
C165       N166 1.540       .   A
C165       C636 1.530       .   S
O167      Cu175 1.951       .   S
O167       C177 1.250       .   A
O168      Cu175 1.951       .   S
O168       C178 1.250       .   A
O169      Cu175 1.951       .   S
O169       C179 1.250       .   A
O170      Cu175 1.951       .   S
O170       C180 1.250       .   A
O171      Cu176 1.951       .   S
O171       C180 1.250       .   A
O172      Cu176 1.951       .   S
O172       C179 1.251       .   A
O173      Cu176 1.951       .   S
O173       C178 1.250       .   A
O174      Cu176 1.951       .   S
O174       C177 1.250       .   A
Cu175     Cu176 2.630       .   S
C177       C389 1.554   1_556   S
C178       C629 1.553       .   S
C179       C316 1.541   1_565   S
C180       C599 1.542   1_556   S
C181       N182 1.540       .   A
C181       N186 1.540       .   A
C181       C349 1.554   1_545   S
N182       C183 1.540       .   A
C183       N184 1.540       .   A
C183       C646 1.535       .   S
N184       C185 1.540       .   A
C185       N186 1.540       .   A
C185       C656 1.546       .   S
C187       N188 1.540       .   A
C187       N192 1.540       .   A
C187       C666 1.557       .   S
N188       C189 1.540       .   A
C189       N190 1.540       .   A
C189       C659 1.546       .   S
N190       C191 1.540       .   A
C191       N192 1.540       .   A
C191       C679 1.531       .   S
O193      Cu201 1.951       .   S
O193       C203 1.250       .   A
O194      Cu201 1.951       .   S
O194       C204 1.250       .   A
O195      Cu201 1.951       .   S
O195       C205 1.250       .   A
O196      Cu201 1.951       .   S
O196       C206 1.250       .   A
O197      Cu202 1.951       .   S
O197       C206 1.250       .   A
O198      Cu202 1.951       .   S
O198       C205 1.251       .   A
O199      Cu202 1.951       .   S
O199       C204 1.250       .   A
O200      Cu202 1.951       .   S
O200       C203 1.250       .   A
Cu201     Cu202 2.630       .   S
C203       C436 1.558   1_456   S
C204       C669 1.557       .   S
C205       C289 1.541   1_455   S
C206       C579 1.545       .   S
O207      Cu215 1.951       .   S
O207       C217 1.250       .   A
O208      Cu215 1.951       .   S
O208       C218 1.250       .   A
O209      Cu215 1.951       .   S
O209       C219 1.250       .   A
O210      Cu215 1.951       .   S
O210       C220 1.250       .   A
O211      Cu216 1.951       .   S
O211       C220 1.250       .   A
O212      Cu216 1.951       .   S
O212       C219 1.251       .   A
O213      Cu216 1.951       .   S
O213       C218 1.250       .   A
O214      Cu216 1.951       .   S
O214       C217 1.250       .   A
Cu215     Cu216 2.630       .   S
C217       C419 1.529   1_556   S
C218       C609 1.534   1_455   S
C219       C649 1.535   1_565   S
C220       C469 1.527   1_455   S
O221      Cu229 1.951       .   S
O221       C231 1.250       .   A
O222      Cu229 1.951       .   S
O222       C232 1.250       .   A
O223      Cu229 1.951       .   S
O223       C233 1.250       .   A
O224      Cu229 1.951       .   S
O224       C234 1.250       .   A
O225      Cu230 1.951       .   S
O225       C234 1.250       .   A
O226      Cu230 1.951       .   S
O226       C233 1.251       .   A
O227      Cu230 1.951       .   S
O227       C232 1.250       .   A
O228      Cu230 1.951       .   S
O228       C231 1.250       .   A
Cu229     Cu230 2.630       .   S
C231       C539 1.531       .   S
C232       C676 1.531       .   S
C233       C639 1.530       .   S
C234       C509 1.530       .   S
C675       C676 1.540       .   A
C675       C680 1.540       .   A
C675       H681 1.140       .   S
C676       C677 1.540       .   A
C677       C678 1.540       .   A
C677       H682 1.140       .   S
C678       C679 1.540       .   A
C678       H683 1.140       .   S
C679       C680 1.540       .   A
C680       H684 1.140       .   S
C665       C666 1.540       .   A
C665       C670 1.540       .   A
C665       H671 1.140       .   S
C666       C667 1.540       .   A
C667       C668 1.540       .   A
C667       H672 1.140       .   S
C668       C669 1.540       .   A
C668       H673 1.140       .   S
C669       C670 1.540       .   A
C670       H674 1.140       .   S
C655       C656 1.540       .   A
C655       C660 1.540       .   A
C655       H661 1.140       .   S
C656       C657 1.540       .   A
C657       C658 1.540       .   A
C657       H662 1.140       .   S
C658       C659 1.540       .   A
C658       H663 1.140       .   S
C659       C660 1.540       .   A
C660       H664 1.140       .   S
C645       C646 1.540       .   A
C645       C650 1.540       .   A
C645       H651 1.140       .   S
C646       C647 1.540       .   A
C647       C648 1.540       .   A
C647       H652 1.140       .   S
C648       C649 1.540       .   A
C648       H653 1.140       .   S
C649       C650 1.540       .   A
C650       H654 1.140       .   S
C635       C636 1.540       .   A
C635       C640 1.540       .   A
C635       H641 1.140       .   S
C636       C637 1.540       .   A
C637       C638 1.540       .   A
C637       H642 1.140       .   S
C638       C639 1.540       .   A
C638       H643 1.140       .   S
C639       C640 1.540       .   A
C640       H644 1.140       .   S
C625       C626 1.540       .   A
C625       C630 1.540       .   A
C625       H631 1.140       .   S
C626       C627 1.540       .   A
C627       C628 1.540       .   A
C627       H632 1.140       .   S
C628       C629 1.540       .   A
C628       H633 1.140       .   S
C629       C630 1.540       .   A
C630       H634 1.140       .   S
C615       C616 1.540       .   A
C615       C620 1.540       .   A
C615       H621 1.140       .   S
C616       C617 1.540       .   A
C617       C618 1.540       .   A
C617       H622 1.140       .   S
C618       C619 1.540       .   A
C618       H623 1.140       .   S
C619       C620 1.540       .   A
C620       H624 1.140       .   S
C605       C606 1.540       .   A
C605       C610 1.540       .   A
C605       H611 1.140       .   S
C606       C607 1.540       .   A
C607       C608 1.540       .   A
C607       H612 1.140       .   S
C608       C609 1.540       .   A
C608       H613 1.140       .   S
C609       C610 1.540       .   A
C610       H614 1.140       .   S
C595       C596 1.540       .   A
C595       C600 1.540       .   A
C595       H601 1.140       .   S
C596       C597 1.540       .   A
C597       C598 1.540       .   A
C597       H602 1.140       .   S
C598       C599 1.540       .   A
C598       H603 1.140       .   S
C599       C600 1.540       .   A
C600       H604 1.140       .   S
C585       C586 1.540       .   A
C585       C590 1.540       .   A
C585       H591 1.140       .   S
C586       C587 1.540       .   A
C587       C588 1.540       .   A
C587       H592 1.140       .   S
C588       C589 1.540       .   A
C588       H593 1.140       .   S
C589       C590 1.540       .   A
C590       H594 1.140       .   S
C575       C576 1.540       .   A
C575       C580 1.540       .   A
C575       H581 1.140       .   S
C576       C577 1.540       .   A
C577       C578 1.540       .   A
C577       H582 1.140       .   S
C578       C579 1.540       .   A
C578       H583 1.140       .   S
C579       C580 1.540       .   A
C580       H584 1.140       .   S
C565       C566 1.540       .   A
C565       C570 1.540       .   A
C565       H571 1.140       .   S
C566       C567 1.540       .   A
C567       C568 1.540       .   A
C567       H572 1.140       .   S
C568       C569 1.540       .   A
C568       H573 1.140       .   S
C569       C570 1.540       .   A
C570       H574 1.140       .   S
C555       C556 1.540       .   A
C555       C560 1.540       .   A
C555       H561 1.140       .   S
C556       C557 1.540       .   A
C557       C558 1.540       .   A
C557       H562 1.140       .   S
C558       C559 1.540       .   A
C558       H563 1.140       .   S
C559       C560 1.540       .   A
C560       H564 1.140       .   S
C545       C546 1.540       .   A
C545       C550 1.540       .   A
C545       H551 1.140       .   S
C546       C547 1.540       .   A
C547       C548 1.540       .   A
C547       H552 1.140       .   S
C548       C549 1.540       .   A
C548       H553 1.140       .   S
C549       C550 1.540       .   A
C550       H554 1.140       .   S
C535       C536 1.540       .   A
C535       C540 1.540       .   A
C535       H541 1.140       .   S
C536       C537 1.540       .   A
C537       C538 1.540       .   A
C537       H542 1.140       .   S
C538       C539 1.540       .   A
C538       H543 1.140       .   S
C539       C540 1.540       .   A
C540       H544 1.140       .   S
C525       C526 1.540       .   A
C525       C530 1.540       .   A
C525       H531 1.140       .   S
C526       C527 1.540       .   A
C527       C528 1.540       .   A
C527       H532 1.140       .   S
C528       C529 1.540       .   A
C528       H533 1.140       .   S
C529       C530 1.540       .   A
C530       H534 1.140       .   S
C515       C516 1.540       .   A
C515       C520 1.540       .   A
C515       H521 1.140       .   S
C516       C517 1.540       .   A
C517       C518 1.540       .   A
C517       H522 1.140       .   S
C518       C519 1.540       .   A
C518       H523 1.140       .   S
C519       C520 1.540       .   A
C520       H524 1.140       .   S
C505       C506 1.540       .   A
C505       C510 1.540       .   A
C505       H511 1.140       .   S
C506       C507 1.540       .   A
C507       C508 1.540       .   A
C507       H512 1.140       .   S
C508       C509 1.540       .   A
C508       H513 1.140       .   S
C509       C510 1.540       .   A
C510       H514 1.140       .   S
C495       C496 1.540       .   A
C495       C500 1.540       .   A
C495       H501 1.140       .   S
C496       C497 1.540       .   A
C497       C498 1.540       .   A
C497       H502 1.140       .   S
C498       C499 1.540       .   A
C498       H503 1.140       .   S
C499       C500 1.540       .   A
C500       H504 1.140       .   S
C485       C486 1.540       .   A
C485       C490 1.540       .   A
C485       H491 1.140       .   S
C486       C487 1.540       .   A
C487       C488 1.540       .   A
C487       H492 1.140       .   S
C488       C489 1.540       .   A
C488       H493 1.140       .   S
C489       C490 1.540       .   A
C490       H494 1.140       .   S
C475       C476 1.540       .   A
C475       C480 1.540       .   A
C475       H481 1.140       .   S
C476       C477 1.540       .   A
C477       C478 1.540       .   A
C477       H482 1.140       .   S
C478       C479 1.540       .   A
C478       H483 1.140       .   S
C479       C480 1.540       .   A
C480       H484 1.140       .   S
C465       C466 1.540       .   A
C465       C470 1.540       .   A
C465       H471 1.140       .   S
C466       C467 1.540       .   A
C467       C468 1.540       .   A
C467       H472 1.140       .   S
C468       C469 1.540       .   A
C468       H473 1.140       .   S
C469       C470 1.540       .   A
C470       H474 1.140       .   S
C455       C456 1.540       .   A
C455       C460 1.540       .   A
C455       H461 1.140       .   S
C456       C457 1.540       .   A
C457       C458 1.540       .   A
C457       H462 1.140       .   S
C458       C459 1.540       .   A
C458       H463 1.140       .   S
C459       C460 1.540       .   A
C460       H464 1.140       .   S
C445       C446 1.540       .   A
C445       C450 1.540       .   A
C445       H451 1.140       .   S
C446       C447 1.540       .   A
C447       C448 1.540       .   A
C447       H452 1.140       .   S
C448       C449 1.540       .   A
C448       H453 1.140       .   S
C449       C450 1.540       .   A
C450       H454 1.140       .   S
C435       C436 1.540       .   A
C435       C440 1.540       .   A
C435       H441 1.140       .   S
C436       C437 1.540       .   A
C437       C438 1.540       .   A
C437       H442 1.140       .   S
C438       C439 1.540       .   A
C438       H443 1.140       .   S
C439       C440 1.540       .   A
C440       H444 1.140       .   S
C425       C426 1.540       .   A
C425       C430 1.540       .   A
C425       H431 1.140       .   S
C426       C427 1.540       .   A
C427       C428 1.540       .   A
C427       H432 1.140       .   S
C428       C429 1.540       .   A
C428       H433 1.140       .   S
C429       C430 1.540       .   A
C430       H434 1.140       .   S
C415       C416 1.540       .   A
C415       C420 1.540       .   A
C415       H421 1.140       .   S
C416       C417 1.540       .   A
C417       C418 1.540       .   A
C417       H422 1.140       .   S
C418       C419 1.540       .   A
C418       H423 1.140       .   S
C419       C420 1.540       .   A
C420       H424 1.140       .   S
C405       C406 1.540       .   A
C405       C410 1.540       .   A
C405       H411 1.140       .   S
C406       C407 1.540       .   A
C407       C408 1.540       .   A
C407       H412 1.140       .   S
C408       C409 1.540       .   A
C408       H413 1.140       .   S
C409       C410 1.540       .   A
C410       H414 1.140       .   S
C395       C396 1.540       .   A
C395       C400 1.540       .   A
C395       H401 1.140       .   S
C396       C397 1.540       .   A
C397       C398 1.540       .   A
C397       H402 1.140       .   S
C398       C399 1.540       .   A
C398       H403 1.140       .   S
C399       C400 1.540       .   A
C400       H404 1.140       .   S
C385       C386 1.540       .   A
C385       C390 1.540       .   A
C385       H391 1.140       .   S
C386       C387 1.540       .   A
C387       C388 1.540       .   A
C387       H392 1.140       .   S
C388       C389 1.540       .   A
C388       H393 1.140       .   S
C389       C390 1.540       .   A
C390       H394 1.140       .   S
C375       C376 1.540       .   A
C375       C380 1.540       .   A
C375       H381 1.140       .   S
C376       C377 1.540       .   A
C377       C378 1.540       .   A
C377       H382 1.140       .   S
C378       C379 1.540       .   A
C378       H383 1.140       .   S
C379       C380 1.540       .   A
C380       H384 1.140       .   S
C365       C366 1.540       .   A
C365       C370 1.540       .   A
C365       H371 1.140       .   S
C366       C367 1.540       .   A
C367       C368 1.540       .   A
C367       H372 1.140       .   S
C368       C369 1.540       .   A
C368       H373 1.140       .   S
C369       C370 1.540       .   A
C370       H374 1.140       .   S
C355       C356 1.540       .   A
C355       C360 1.540       .   A
C355       H361 1.140       .   S
C356       C357 1.540       .   A
C357       C358 1.540       .   A
C357       H362 1.140       .   S
C358       C359 1.540       .   A
C358       H363 1.140       .   S
C359       C360 1.540       .   A
C360       H364 1.140       .   S
C345       C346 1.540       .   A
C345       C350 1.540       .   A
C345       H351 1.140       .   S
C346       C347 1.540       .   A
C347       C348 1.540       .   A
C347       H352 1.140       .   S
C348       C349 1.540       .   A
C348       H353 1.140       .   S
C349       C350 1.540       .   A
C350       H354 1.140       .   S
C335       C336 1.540       .   A
C335       C340 1.540       .   A
C335       H341 1.140       .   S
C336       C337 1.540       .   A
C337       C338 1.540       .   A
C337       H342 1.140       .   S
C338       C339 1.540       .   A
C338       H343 1.140       .   S
C339       C340 1.540       .   A
C340       H344 1.140       .   S
C325       C326 1.540       .   A
C325       C330 1.540       .   A
C325       H331 1.140       .   S
C326       C327 1.540       .   A
C327       C328 1.540       .   A
C327       H332 1.140       .   S
C328       C329 1.540       .   A
C328       H333 1.140       .   S
C329       C330 1.540       .   A
C330       H334 1.140       .   S
C315       C316 1.540       .   A
C315       C320 1.540       .   A
C315       H321 1.140       .   S
C316       C317 1.540       .   A
C317       C318 1.540       .   A
C317       H322 1.140       .   S
C318       C319 1.540       .   A
C318       H323 1.140       .   S
C319       C320 1.540       .   A
C320       H324 1.140       .   S
C305       C306 1.540       .   A
C305       C310 1.540       .   A
C305       H311 1.140       .   S
C306       C307 1.540       .   A
C307       C308 1.540       .   A
C307       H312 1.140       .   S
C308       C309 1.540       .   A
C308       H313 1.140       .   S
C309       C310 1.540       .   A
C310       H314 1.140       .   S
C295       C296 1.540       .   A
C295       C300 1.540       .   A
C295       H301 1.140       .   S
C296       C297 1.540       .   A
C297       C298 1.540       .   A
C297       H302 1.140       .   S
C298       C299 1.540       .   A
C298       H303 1.140       .   S
C299       C300 1.540       .   A
C300       H304 1.140       .   S
C285       C286 1.540       .   A
C285       C290 1.540       .   A
C285       H291 1.140       .   S
C286       C287 1.540       .   A
C287       C288 1.540       .   A
C287       H292 1.140       .   S
C288       C289 1.540       .   A
C288       H293 1.140       .   S
C289       C290 1.540       .   A
C290       H294 1.140       .   S
C275       C276 1.540       .   A
C275       C280 1.540       .   A
C275       H281 1.140       .   S
C276       C277 1.540       .   A
C277       C278 1.540       .   A
C277       H282 1.140       .   S
C278       C279 1.540       .   A
C278       H283 1.140       .   S
C279       C280 1.540       .   A
C280       H284 1.140       .   S
C265       C266 1.540       .   A
C265       C270 1.540       .   A
C265       H271 1.140       .   S
C266       C267 1.540       .   A
C267       C268 1.540       .   A
C267       H272 1.140       .   S
C268       C269 1.540       .   A
C268       H273 1.140       .   S
C269       C270 1.540       .   A
C270       H274 1.140       .   S
C255       C256 1.540       .   A
C255       C260 1.540       .   A
C255       H261 1.140       .   S
C256       C257 1.540       .   A
C257       C258 1.540       .   A
C257       H262 1.140       .   S
C258       C259 1.540       .   A
C258       H263 1.140       .   S
C259       C260 1.540       .   A
C260       H264 1.140       .   S
C245       C246 1.540       .   A
C245       C250 1.540       .   A
C245       H251 1.140       .   S
C246       C247 1.540       .   A
C247       C248 1.540       .   A
C247       H252 1.140       .   S
C248       C249 1.540       .   A
C248       H253 1.140       .   S
C249       C250 1.540       .   A
C250       H254 1.140       .   S
C235       C236 1.540       .   A
C235       C240 1.540       .   A
C235       H241 1.140       .   S
C236       C237 1.540       .   A
C237       C238 1.540       .   A
C237       H242 1.140       .   S
C238       C239 1.540       .   A
C238       H243 1.140       .   S
C239       C240 1.540       .   A
C240       H244 1.140       .   S
