data_hwx_v1-6c_Zn_1_Ch_v2-3c_B_Ch_1-1B_4H_Ch
_audit_creation_date              2024-08-05
_audit_creation_method            'tobacco_3.0'
_symmetry_space_group_name_H-M    'P1'
_symmetry_Int_Tables_number       1
_symmetry_cell_setting            triclinic
loop_
_symmetry_equiv_pos_as_xyz
  x,y,z
_cell_length_a                    36.12091147134886
_cell_length_b                    36.122397627892965
_cell_length_c                    15.72982053104609
_cell_angle_alpha                 89.9994038365517
_cell_angle_beta                  90.00176104041894
_cell_angle_gamma                 89.99994760278453
loop_
_atom_site_label
_atom_site_type_symbol
_atom_site_fract_x
_atom_site_fract_y
_atom_site_fract_z
_atom_site_charge
C1         C    0.5075043834    0.2446347690    0.9999997770         -0.0412
C2         C    0.5286512063    0.2473172595    0.9152182473         -0.0412
C3         C    0.5709468229    0.2526824905    0.9152184703         -0.0412
C4         C    0.5920956166    0.2553652310    0.0000002230         -0.0412
C5         C    0.5709487937    0.2526827405    0.0847817527         -0.0412
C6         C    0.5286531771    0.2473175095    0.0847815297         -0.0412
H7         H    0.5129956056    0.2453313347    0.8524456748         -0.0412
H8         H    0.6234053588    0.2593368955    0.0000003881         -0.0412
H9         H    0.5129990356    0.2453317698    0.1475539370         -0.0412
Zn10      Zn    0.7151905798    0.3116686233    0.4707817259             1.0
Zn11      Zn    0.7960503576    0.3304013662    0.4050822780             1.0
Zn12      Zn    0.7772421473    0.2495619377    0.4707855202             1.0
Zn13      Zn    0.7437434114    0.2781458282    0.2963717872             1.0
O14        O    0.7580566240    0.2924444389    0.4107553278         -0.0412
O15        O    0.7218325681    0.3619740230    0.5075318121         -0.0412
O16        O    0.8413786568    0.3155677508    0.4592511991         -0.0412
O17        O    0.7492131718    0.2380070410    0.5711926741         -0.0412
O18        O    0.7812585910    0.3757412190    0.4592475229         -0.0412
O19        O    0.7036098079    0.2836509127    0.5711898856         -0.0412
O20        O    0.8275559978    0.2561566831    0.5075382768         -0.0412
O21        O    0.7522581081    0.2265347913    0.2740303192         -0.0412
O22        O    0.8089226482    0.3432619002    0.2902665058         -0.0412
O23        O    0.7768772290    0.2055277222    0.4022116570         -0.0412
O24        O    0.7704808683    0.3048579015    0.2103722457         -0.0412
O25        O    0.6921380423    0.2867082595    0.2740266431         -0.0412
O26        O    0.6711537993    0.3113450621    0.4022051923         -0.0412
C27        C    0.7502718779    0.3838056979    0.4975985208         -0.0412
C28        C    0.8494149193    0.2845745915    0.4976045832         -0.0412
C29        C    0.7202210147    0.2546443063    0.6025760343         -0.0412
C30        C    0.7658413702    0.2010831798    0.3239121348         -0.0412
C31        C    0.7958922333    0.3302445714    0.2189346213         -0.0412
C32        C    0.6666983287    0.3003142862    0.3239060725         -0.0412
C33        C    0.8060671760    0.5429723421    0.8215759617         -0.0412
C34        C    0.8033878660    0.5218256064    0.7367938006         -0.0412
C35        C    0.7980290873    0.4795308840    0.7367927607         -0.0412
C36        C    0.7953496187    0.4583828972    0.8215738819         -0.0412
C37        C    0.7980289288    0.4795296328    0.9063560430         -0.0412
C38        C    0.8033877074    0.5218243552    0.9063570829         -0.0412
H39        H    0.8053713687    0.5374806098    0.6740216956         -0.0412
H40        H    0.7913827307    0.4270738170    0.8215731121         -0.0412
H41        H    0.8053710928    0.5374784321    0.9691299577         -0.0412
C42        C    0.7734146638    0.0429706740    0.3215733514         -0.0412
C43        C    0.7760940705    0.0218235063    0.4063559450         -0.0412
C44        C    0.7814529327    0.9795287847    0.4063578500         -0.0412
C45        C    0.7841323883    0.9583812307    0.3215771613         -0.0412
C46        C    0.7814529817    0.9795283985    0.2367945677         -0.0412
C47        C    0.7760941194    0.0218231201    0.2367926627         -0.0412
H48        H    0.7741105774    0.0374781891    0.4691277298         -0.0412
H49        H    0.7880993383    0.9270721511    0.3215785715         -0.0412
H50        H    0.7741106625    0.0374775170    0.1740194677         -0.0412
Zn51      Zn    0.7785411643    0.7732236284    0.8507523187             1.0
Zn52      Zn    0.8594019582    0.7544919448    0.9164584013             1.0
Zn53      Zn    0.8405917456    0.8353311856    0.8507540854             1.0
Zn54      Zn    0.8070953716    0.8067466214    0.0251648467             1.0
O55        O    0.8214075599    0.7924483451    0.9107824130         -0.0412
O56        O    0.7851835493    0.7229183648    0.8140024781         -0.0412
O57        O    0.9047294293    0.7693262600    0.8622933550         -0.0412
O58        O    0.8125614882    0.8468858054    0.7503446626         -0.0412
O59        O    0.8446103190    0.7091519473    0.8622916433         -0.0412
O60        O    0.7669588490    0.8012412931    0.7503433642         -0.0412
O61        O    0.8909052988    0.8287371898    0.8140054881         -0.0412
O62        O    0.8156094931    0.8583577520    0.0475073423         -0.0412
O63        O    0.8722757091    0.7416314580    0.0312751691         -0.0412
O64        O    0.8402268783    0.8793653161    0.9193281884         -0.0412
O65        O    0.8338341934    0.7800348236    0.1111664561         -0.0412
O66        O    0.7554903828    0.7981834393    0.0475056306         -0.0412
O67        O    0.7345051288    0.7735464911    0.9193251784         -0.0412
C68        C    0.8136233144    0.7010870777    0.8239380093         -0.0412
C69        C    0.9127647802    0.8003195769    0.8239408320         -0.0412
C70        C    0.7835692520    0.8302481694    0.7189587802         -0.0412
C71        C    0.8291918054    0.8838096124    0.9976268168         -0.0412
C72        C    0.8592458679    0.7546485207    0.1026060458         -0.0412
C73        C    0.7300503397    0.7845771132    0.9976239941         -0.0412
C74        C    0.0719716417    0.7446406301    0.5000065452         -0.0412
C75        C    0.0508244775    0.7473236810    0.5847874107         -0.0412
C76        C    0.0085289804    0.7526899313    0.5847858594         -0.0412
C77        C    0.9873806474    0.7553731305    0.5000034425         -0.0412
C78        C    0.0085278115    0.7526900796    0.4152225770         -0.0412
C79        C    0.0508233087    0.7473238293    0.4152241283         -0.0412
H80        H    0.0664797371    0.7453374167    0.6475604748         -0.0412
H81        H    0.9560709937    0.7593455495    0.5000022942         -0.0412
H82        H    0.0664777028    0.7453376747    0.3524522126         -0.0412
C83        C    0.3060643157    0.9784930876    0.3215820338         -0.0412
C84        C    0.3033850005    0.9996405638    0.2367998306         -0.0412
C85        C    0.2980263953    0.0419353180    0.2367987066         -0.0412
C86        C    0.2953471053    0.0630825961    0.3215797858         -0.0412
C87        C    0.2980264204    0.0419351199    0.4063619890         -0.0412
C88        C    0.3033850256    0.9996403657    0.4063631130         -0.0412
H89        H    0.3053683711    0.9839860853    0.1740277568         -0.0412
H90        H    0.2913803456    0.0943916998    0.3215789538         -0.0412
H91        H    0.3053684148    0.9839857404    0.4691360189         -0.0412
Zn92      Zn    0.2437461018    0.2433181589    0.7963920830             1.0
Zn93      Zn    0.2151940463    0.2097946823    0.9708035498             1.0
Zn94      Zn    0.2960539239    0.1910629444    0.9051039113             1.0
Zn95      Zn    0.2772448371    0.2719020302    0.9708044142             1.0
O96        O    0.2580597273    0.2290194539    0.9107759896         -0.0412
O97        O    0.1921407941    0.2347552251    0.7740478072         -0.0412
O98        O    0.2218367388    0.1594892741    0.0075553953         -0.0412
O99        O    0.3089261404    0.1782027959    0.7902884683         -0.0412
O100       O    0.1711571214    0.2101179215    0.9022274796         -0.0412
O101       O    0.2704837168    0.2166065568    0.7103932252         -0.0412
O102       O    0.2812628351    0.1457228167    0.9592709661         -0.0412
O103       O    0.3275588453    0.2653077425    0.0075568680         -0.0412
O104       O    0.2036131294    0.2378120523    0.0712108147         -0.0412
O105       O    0.3413821484    0.2058969267    0.9592718035         -0.0412
O106       O    0.2492159225    0.2834564108    0.0712114500         -0.0412
O107       O    0.2768792279    0.3159363899    0.9022289523         -0.0412
O108       O    0.2522601074    0.2949293350    0.7740486446         -0.0412
C109       C    0.1667013527    0.2211488189    0.8239280063         -0.0412
C110       C    0.2502763013    0.1376579242    0.9976225918         -0.0412
C111       C    0.2958954168    0.1912201396    0.7189562507         -0.0412
C112       C    0.3494181018    0.2368900889    0.9976239729         -0.0412
C113       C    0.2202240377    0.2668187682    0.1025957285         -0.0412
C114       C    0.2658431532    0.3203809837    0.8239293873         -0.0412
C115       C    0.0075035608    0.2768333469    0.4999941616         -0.0412
C116       C    0.0286516704    0.2741507265    0.5847769689         -0.0412
C117       C    0.0709473050    0.2687855599    0.5847793012         -0.0412
C118       C    0.0920948300    0.2661030136    0.4999988261         -0.0412
C119       C    0.0709467205    0.2687856340    0.4152160188         -0.0412
C120       C    0.0286510859    0.2741508007    0.4152136865         -0.0412
H121       H    0.0129970090    0.2761365075    0.6475485956         -0.0412
H122       H    0.1234045855    0.2621313967    0.5000005526         -0.0412
H123       H    0.0129959918    0.2761366366    0.3524403334         -0.0412
C124       C    0.2733958117    0.4784920258    0.8215793556         -0.0412
C125       C    0.2760751656    0.4996390527    0.9063611262         -0.0412
C126       C    0.2814339578    0.5419337734    0.9063613852         -0.0412
C127       C    0.2841133962    0.5630814672    0.8215798735         -0.0412
C128       C    0.2814340423    0.5419344403    0.7367981028         -0.0412
C129       C    0.2760752501    0.4996397196    0.7367978439         -0.0412
H130       H    0.2740916852    0.4839842663    0.9691335203         -0.0412
H131       H    0.2880802943    0.5943905462    0.8215800652         -0.0412
H132       H    0.2740918323    0.4839854270    0.6740252582         -0.0412
Zn133     Zn    0.3405924337    0.6861275712    0.3507593651             1.0
Zn134     Zn    0.3070970880    0.7147120361    0.5251699405             1.0
Zn135     Zn    0.3594043037    0.7669661476    0.4164614038             1.0
Zn136     Zn    0.2785429780    0.7482363665    0.3507570290             1.0
O137       O    0.3214092008    0.7290105303    0.4107869346         -0.0412
O138       O    0.3402269689    0.6420931462    0.4193345562         -0.0412
O139       O    0.3338366455    0.7414229220    0.6111704809         -0.0412
O140       O    0.4047313474    0.7521311663    0.3622960229         -0.0412
O141       O    0.3156103395    0.6631006374    0.5475135734         -0.0412
O142       O    0.3909059989    0.6927207249    0.3140098296         -0.0412
O143       O    0.3722786235    0.7798258722    0.5312776569         -0.0412
O144       O    0.2851861673    0.7985416592    0.3140058494         -0.0412
O145       O    0.2554923198    0.7232761496    0.5475113101         -0.0412
O146       O    0.3446133277    0.8123066785    0.3622937595         -0.0412
O147       O    0.2345071373    0.7479140805    0.4193305759         -0.0412
O148       O    0.2669598612    0.7202193746    0.2503489419         -0.0412
O149       O    0.3125616731    0.6745739525    0.2503506588         -0.0412
C150       C    0.3291920446    0.6376487256    0.4976334640         -0.0412
C151       C    0.3592487550    0.7668087556    0.6026090546         -0.0412
C152       C    0.4127660244    0.7211378579    0.3239441377         -0.0412
C153       C    0.3136263571    0.8203723351    0.3239404052         -0.0412
C154       C    0.2300523773    0.7368832028    0.4976297315         -0.0412
C155       C    0.2835696466    0.6912123050    0.2189648146         -0.0412
C156       C    0.5719694829    0.7768236411    0.0000076218         -0.0412
C157       C    0.5508224346    0.7741405872    0.0847887610         -0.0412
C158       C    0.5085269516    0.7687743036    0.0847877571         -0.0412
C159       C    0.4873785168    0.7660910738    0.0000056139         -0.0412
C160       C    0.5085255651    0.7687741277    0.9152244746         -0.0412
C161       C    0.5508210482    0.7741404113    0.9152254786         -0.0412
H162       H    0.5664777696    0.7761268742    0.1475616225         -0.0412
H163       H    0.4560688735    0.7621186301    0.0000048706         -0.0412
H164       H    0.5664753566    0.7761265681    0.8524533603         -0.0412
C395       C    0.4263948924    0.7551912857    0.8508501050         -0.0412
C396       C    0.4653882888    0.7682061842    0.8248864124         -0.0412
C397       C    0.4728805564    0.7808063401    0.7329530720         -0.0412
C398       C    0.4413794277    0.7803915976    0.6669834242         -0.0412
C399       C    0.4023860314    0.7673766992    0.6929471168         -0.0412
C400       C    0.3948937637    0.7547765432    0.7848804573         -0.0412
H401       H    0.4208486683    0.7458638975    0.9189046557         -0.0412
H402       H    0.5017435669    0.7904403205    0.7137319295         -0.0412
H403       H    0.4469256518    0.7897189858    0.5989288735         -0.0412
H404       H    0.3660307532    0.7451425629    0.8041015997         -0.0412
C385       C    0.4492789821    0.7761600972    0.1429737682         -0.0412
C386       C    0.4879949278    0.7585606114    0.1360650854         -0.0412
C387       C    0.4993624336    0.7273565949    0.1974572646         -0.0412
C388       C    0.4720139938    0.7137520643    0.2657581266         -0.0412
C389       C    0.4332980482    0.7313515501    0.2726668094         -0.0412
C390       C    0.4219305423    0.7625555666    0.2112746302         -0.0412
H391       H    0.4408640752    0.7992591744    0.0975276095         -0.0412
H392       H    0.5280201987    0.7143285305    0.1923454250         -0.0412
H393       H    0.4804289008    0.6906529871    0.3112042852         -0.0412
H394       H    0.3932727772    0.7755836310    0.2163864697         -0.0412
C375       C    0.2868329945    0.5531595858    0.5906154681         -0.0412
C376       C    0.2916748896    0.5624586526    0.6855135343         -0.0412
C377       C    0.3101549385    0.5990906497    0.7121138497         -0.0412
C378       C    0.3237930924    0.6264235800    0.6438160988         -0.0412
C379       C    0.3189511973    0.6171245133    0.5489180326         -0.0412
C380       C    0.3004711484    0.5804925162    0.5223177172         -0.0412
H381       H    0.2731529583    0.5260423932    0.5709243255         -0.0412
H382       H    0.3137394769    0.6059749452    0.7823579028         -0.0412
H383       H    0.3374731286    0.6535407727    0.6635072413         -0.0412
H384       H    0.2968866100    0.5736082207    0.4520736640         -0.0412
C365       C    0.2478359278    0.6100566006    0.0076677269         -0.0412
C366       C    0.2820511367    0.5850728101    0.9966986270         -0.0412
C367       C    0.3167170111    0.5915892487    0.0516940000         -0.0412
C368       C    0.3171676767    0.6230894778    0.1176584729         -0.0412
C369       C    0.2829524678    0.6480732684    0.1286275729         -0.0412
C370       C    0.2482865933    0.6415568298    0.0736321998         -0.0412
H371       H    0.2221741766    0.6052327435    0.9669568663         -0.0412
H372       H    0.3420440842    0.5730965419    0.0435764516         -0.0412
H373       H    0.3428294278    0.6279133349    0.1583693335         -0.0412
H374       H    0.2229595202    0.6600495365    0.0817497482         -0.0412
C355       C    0.2679181592    0.3784163335    0.9078409277         -0.0412
C356       C    0.2675853326    0.3568526176    0.8233873031         -0.0412
C357       C    0.2692866559    0.3778727888    0.7383007469         -0.0412
C358       C    0.2713208058    0.4204566760    0.7376678152         -0.0412
C359       C    0.2716536324    0.4420203919    0.8221214398         -0.0412
C360       C    0.2699523090    0.4210002207    0.9072079960         -0.0412
H361       H    0.2666587380    0.3628559470    0.9708270797         -0.0412
H362       H    0.2690403527    0.3619120681    0.6757857814         -0.0412
H363       H    0.2725802270    0.4360170625    0.6746816632         -0.0412
H364       H    0.2701986122    0.4369609414    0.9697229615         -0.0412
C345       C    0.1648709604    0.2311079464    0.2360372550         -0.0412
C346       C    0.1770853677    0.2673871598    0.1929378098         -0.0412
C347       C    0.1577997864    0.3040814145    0.2158064285         -0.0412
C348       C    0.1262997978    0.3044964558    0.2817744923         -0.0412
C349       C    0.1140853905    0.2682172424    0.3248739375         -0.0412
C350       C    0.1333709718    0.2315229877    0.3020053188         -0.0412
H351       H    0.1791472999    0.2039446669    0.2191085373         -0.0412
H352       H    0.1668402370    0.3309363207    0.1839050961         -0.0412
H353       H    0.1120234584    0.3316597353    0.2987032100         -0.0412
H354       H    0.1243305213    0.2046680816    0.3339066512         -0.0412
C335       C    0.1456018606    0.2129556331    0.6843572395         -0.0412
C336       C    0.1461727848    0.2313615890    0.7726572709         -0.0412
C337       C    0.1193952531    0.2633731453    0.7926536852         -0.0412
C338       C    0.0920467971    0.2769787457    0.7243500680         -0.0412
C339       C    0.0914758729    0.2585727898    0.6360500365         -0.0412
C340       C    0.1182534047    0.2265612335    0.6160536223         -0.0412
H341       H    0.1654241893    0.1892587667    0.6695546990         -0.0412
H342       H    0.1198170017    0.2769981816    0.8580136875         -0.0412
H343       H    0.0722244684    0.3006756121    0.7391526085         -0.0412
H344       H    0.1178316560    0.2129361973    0.5506936199         -0.0412
C325       C    0.2325152291    0.0928735727    0.0973641975         -0.0412
C326       C    0.2605158353    0.1171311609    0.0489115370         -0.0412
C327       C    0.3021519545    0.1140542093    0.0687579888         -0.0412
C328       C    0.3157874675    0.0867196696    0.1370571010         -0.0412
C329       C    0.2877868614    0.0624620814    0.1855097615         -0.0412
C330       C    0.2461507421    0.0655390329    0.1656633097         -0.0412
H331       H    0.2016936863    0.0951513160    0.0826726683         -0.0412
H332       H    0.3228792214    0.1320094925    0.0328941298         -0.0412
H333       H    0.3466090103    0.0844419262    0.1517486302         -0.0412
H334       H    0.2254234753    0.0475837497    0.2015271687         -0.0412
C315       C    0.3329291467    0.0948738016    0.5459602785         -0.0412
C316       C    0.2974105907    0.0850763652    0.4966972802         -0.0412
C317       C    0.2614423626    0.1067801934    0.5133961216         -0.0412
C318       C    0.2609926905    0.1382814579    0.5793579612         -0.0412
C319       C    0.2965112465    0.1480788943    0.6286209595         -0.0412
C320       C    0.3324794746    0.1263750662    0.6119221181         -0.0412
H321       H    0.3595549779    0.0788073314    0.5335987985         -0.0412
H322       H    0.2351505154    0.0995288526    0.4769323538         -0.0412
H323       H    0.2343668593    0.1543479281    0.5917194412         -0.0412
H324       H    0.3587713219    0.1336264069    0.6483858859         -0.0412
C305       C    0.3149230064    0.8785733387    0.4073462271         -0.0412
C306       C    0.3118818827    0.8568489404    0.3233963565         -0.0412
C307       C    0.3068042127    0.8777083131    0.2388113490         -0.0412
C308       C    0.3047676664    0.9202920841    0.2381762119         -0.0412
C309       C    0.3078087900    0.9420164823    0.3221260824         -0.0412
C310       C    0.3128864601    0.9211571097    0.4067110900         -0.0412
H311       H    0.3186818011    0.8631319849    0.4699611028         -0.0412
H312       H    0.3045530231    0.8616286509    0.1766692763         -0.0412
H313       H    0.3010088717    0.9357334379    0.1755613362         -0.0412
H314       H    0.3151376497    0.9372367719    0.4688531627         -0.0556
C295       C    0.1280384254    0.7100307197    0.4561377692         -0.0412
C296       C    0.1084290900    0.7428515695    0.4994583913         -0.0412
C297       C    0.1314026741    0.7735827662    0.5421387605         -0.0412
C298       C    0.1739855936    0.7714931131    0.5414985075         -0.0412
C299       C    0.1935949289    0.7386722633    0.4981778854         -0.0412
C300       C    0.1706213448    0.7079410666    0.4554975162         -0.0412
H301       H    0.1110320060    0.6872816520    0.4245432102         -0.0412
H302       H    0.1168886408    0.7978776152    0.5742058817         -0.0412
H303       H    0.1909920130    0.7942421808    0.5730930665         -0.0412
H304       H    0.1851353781    0.6836462177    0.4234303950         -0.0412
C285       C    0.6741099139    0.7461732536    0.0208293881         -0.0412
C286       C    0.6935928742    0.7827889654    0.9981737192         -0.0412
C287       C    0.6704928716    0.8173160889    0.9761601391         -0.0412
C288       C    0.6279099087    0.8152275007    0.9768022278         -0.0412
C289       C    0.6084269484    0.7786117889    0.9994578966         -0.0412
C290       C    0.6315269510    0.7440846654    0.0214714768         -0.0412
H291       H    0.6912099158    0.7206142140    0.0371251552         -0.0412
H292       H    0.6849133585    0.8444200014    0.9593897969         -0.0412
H293       H    0.6108099068    0.8407865403    0.9605064607         -0.0412
H294       H    0.6171064641    0.7169807529    0.0382418190         -0.0412
C275       C    0.9429161246    0.7575868220    0.1636562776         -0.0412
C276       C    0.9023852547    0.7540825718    0.1929457422         -0.0412
C277       C    0.8933559699    0.7501650499    0.2882037760         -0.0412
C278       C    0.9248575549    0.7497517782    0.3541723452         -0.0412
C279       C    0.9653884247    0.7532560284    0.3248828806         -0.0412
C280       C    0.9744177096    0.7571735503    0.2296248468         -0.0412
H281       H    0.9496001406    0.7604868057    0.0931405902         -0.0412
H282       H    0.8633548783    0.7475710924    0.3098867483         -0.0412
H283       H    0.9181735388    0.7468517945    0.4246880326         -0.0412
H284       H    0.0044188011    0.7597675078    0.2079418745         -0.0412
C265       C    0.9490535710    0.8175153273    0.7069779608         -0.0412
C266       C    0.9332975310    0.7901073301    0.7726637426         -0.0412
C267       C    0.9448908403    0.7490967569    0.7700491275         -0.0412
C268       C    0.9722401896    0.7354941808    0.7017487306         -0.0412
C269       C    0.9879962296    0.7629021780    0.6360629488         -0.0412
C270       C    0.9764029203    0.8039127513    0.6386775639         -0.0412
H271       H    0.9404715108    0.8478738036    0.7089134551         -0.0412
H272       H    0.9332286424    0.7288081569    0.8186694270         -0.0412
H273       H    0.9808222498    0.7051357046    0.6998132362         -0.0412
H274       H    0.9880651182    0.8242013512    0.5900572644         -0.0412
C255       C    0.7636311350    0.9395194847    0.1269262720         -0.0412
C256       C    0.7916896280    0.9590033985    0.1855097752         -0.0412
C257       C    0.8333808865    0.9511529192    0.1757941954         -0.0412
C258       C    0.8470136521    0.9238185261    0.1074951124         -0.0412
C259       C    0.8189551591    0.9043346123    0.0489116092         -0.0412
C260       C    0.7772639006    0.9121850916    0.0586271890         -0.0412
H261       H    0.7327687748    0.9453308785    0.1341183246         -0.0412
H262       H    0.8541510027    0.9655745945    0.2191571888         -0.0412
H263       H    0.8778760123    0.9180071323    0.1003030599         -0.0412
H264       H    0.7564937844    0.8977634164    0.0152641956         -0.0412
C245       C    0.7960686265    0.9438245882    0.5875769415         -0.0412
C246       C    0.7820645108    0.9363893787    0.4966938820         -0.0412
C247       C    0.7685069767    0.8974532675    0.4717752556         -0.0412
C248       C    0.7689535583    0.8659523659    0.5377396887         -0.0412
C249       C    0.7829576739    0.8733875754    0.6286227482         -0.0412
C250       C    0.7965152080    0.9123236866    0.6535413746         -0.0412
H251       H    0.8061047231    0.9726474237    0.6060231975         -0.0412
H252       H    0.7581407511    0.8919485196    0.4045031494         -0.0412
H253       H    0.7589174616    0.8371295304    0.5192934327         -0.0412
H254       H    0.8068814337    0.9178284344    0.7208134808         -0.0412
C235       C    0.8087148950    0.6005031817    0.9072238024         -0.0412
C236       C    0.8078102083    0.5794458791    0.8221208333         -0.0412
C237       C    0.8089405586    0.6009724073    0.7376540164         -0.0412
C238       C    0.8109755955    0.6435562381    0.7382901686         -0.0412
C239       C    0.8118802821    0.6646135407    0.8233931377         -0.0412
C240       C    0.8107499319    0.6430870125    0.9078599546         -0.0412
H241       H    0.8078781422    0.5845679596    0.9697511863         -0.0412
H242       H    0.8082709485    0.5853865480    0.6746584280         -0.0412
H243       H    0.8118123483    0.6594914602    0.6757627846         -0.0412
H244       H    0.8114195419    0.6586728718    0.9708555430         -0.0412
C225       C    0.9081369454    0.2970351121    0.4213329812         -0.0412
C226       C    0.8858760946    0.2827891699    0.4981557097         -0.0412
C227       C    0.9061983893    0.2664580270    0.5756221009         -0.0412
C228       C    0.9487815347    0.2643728263    0.5762657636         -0.0412
C229       C    0.9710423855    0.2786187685    0.4994430351         -0.0412
C230       C    0.9507200909    0.2949499114    0.4219766439         -0.0412
H231       H    0.8930931689    0.3091243997    0.3639877305         -0.0412
H232       H    0.8897216298    0.2559127143    0.6324884631         -0.0412
H233       H    0.9638253113    0.2522835387    0.6336110143         -0.0412
H234       H    0.9671968504    0.3054952241    0.3651102817         -0.0412
C215       C    0.7508322734    0.1422581774    0.3973308178         -0.0412
C216       C    0.7675883407    0.1646105563    0.3233726356         -0.0412
C217       C    0.7863840843    0.1443793058    0.2487845609         -0.0412
C218       C    0.7884237606    0.1017956764    0.2481546684         -0.0412
C219       C    0.7716676933    0.0794432975    0.3221128506         -0.0412
C220       C    0.7528719497    0.0996745480    0.3967009253         -0.0412
H221       H    0.7369185411    0.1572345577    0.4525453666         -0.0412
H222       H    0.7987874606    0.1609238170    0.1940386168         -0.0412
H223       H    0.8023374929    0.0868192962    0.1929401196         -0.0412
H224       H    0.7404685734    0.0831300369    0.4514468694         -0.0412
C205       C    0.7715652338    0.4387495921    0.0743569557         -0.0412
C206       C    0.7974114690    0.4363894046    0.9966846471         -0.0412
C207       C    0.8228068162    0.4025269146    0.9849730235         -0.0412
C208       C    0.8223559283    0.3710246121    0.0509337086         -0.0412
C209       C    0.7965096932    0.3733847996    0.1286060173         -0.0412
C210       C    0.7711143459    0.4072472897    0.1403176409         -0.0412
H211       H    0.7527660806    0.4638166302    0.0830265992         -0.0412
H212       H    0.8419389113    0.4007788405    0.9274798860         -0.0412
H213       H    0.8411550815    0.3459575740    0.0422640652         -0.0412
H214       H    0.7519822508    0.4089953637    0.1978107783         -0.0412
C195       C    0.7786518210    0.4187388763    0.7099141840         -0.0412
C196       C    0.7877870337    0.4590015753    0.6854949509         -0.0412
C197       C    0.7832856953    0.4719309900    0.5927764077         -0.0412
C198       C    0.7696491443    0.4445977056    0.5244770975         -0.0412
C199       C    0.7605139316    0.4043350066    0.5488963306         -0.0412
C200       C    0.7650152699    0.3914055920    0.6416148738         -0.0412
H201       H    0.7819839805    0.4091677512    0.7785499887         -0.0412
H202       H    0.7900474048    0.5017337059    0.5746984439         -0.0412
H203       H    0.7663169848    0.4541688307    0.4558412928         -0.0412
H204       H    0.7582535604    0.3616028761    0.6596928376         -0.0412
C185       C    0.6603425918    0.2674582496    0.1963442916         -0.0412
C186       C    0.6461727827    0.2901036520    0.2726456958         -0.0412
C187       C    0.6046537521    0.2991439157    0.2806453168         -0.0412
C188       C    0.5773045306    0.2855387771    0.2123435336         -0.0412
C189       C    0.5914743397    0.2628933748    0.1360421294         -0.0412
C190       C    0.6329933704    0.2538531110    0.1280425084         -0.0412
H191       H    0.6910774587    0.2607661063    0.1904224942         -0.0412
H192       H    0.5941639958    0.3159062481    0.3371235982         -0.0412
H193       H    0.5465696638    0.2922309204    0.2182653309         -0.0412
H194       H    0.6434831267    0.2370907786    0.0715642270         -0.0412
C175       C    0.6050524475    0.2571671673    0.7296099476         -0.0412
C176       C    0.6140852313    0.2532494312    0.8248686455         -0.0412
C177       C    0.6546167026    0.2497456623    0.8541559502         -0.0412
C178       C    0.6861153902    0.2501596295    0.7881845570         -0.0412
C179       C    0.6770826064    0.2540773656    0.6929258591         -0.0412
C180       C    0.6365511350    0.2575811345    0.6636385544         -0.0412
H181       H    0.5750486310    0.2597608664    0.7079297350         -0.0412
H182       H    0.6613040198    0.2468456570    0.9246670268         -0.0412
H183       H    0.7161192066    0.2475659304    0.8098647696         -0.0412
H184       H    0.6298638179    0.2604811398    0.5931274778         -0.0412
C165       C    0.4481553631    0.2761786660    0.9683970565         -0.0412
C166       C    0.4710443477    0.2428485842    0.9994518363         -0.0412
C167       C    0.4513502273    0.2074323471    0.0298666547         -0.0412
C168       C    0.4087671222    0.2053461919    0.0292266933         -0.0412
C169       C    0.3858781375    0.2386762737    0.9981719135         -0.0412
C170       C    0.4055722580    0.2740925108    0.9677570952         -0.0412
H171       H    0.4627341276    0.3023958805    0.9458821910         -0.0412
H172       H    0.4682919491    0.1827604182    0.0528542548         -0.0412
H173       H    0.3941883577    0.1791289774    0.0517415589         -0.0412
H174       H    0.3886305361    0.2987644397    0.9447694950         -0.0412
loop_
_geom_bond_atom_site_label_1
_geom_bond_atom_site_label_2
_geom_bond_distance
_geom_bond_site_symmetry_2
_ccdc_geom_bond_type
C1           C2 1.540       .   A
C1           C6 1.540       .   A
C1         C166 1.319       .   S
C2           C3 1.540       .   A
C2           H7 1.140       .   S
C3           C4 1.540       .   A
C3         C176 2.109       .   S
C4           C5 1.540       .   A
C4           H8 1.140       .   S
C5           C6 1.540       .   A
C5         C189 1.156       .   S
C6           H9 1.140       .   S
Zn10        O14 1.942       .   S
Zn10        O15 1.922       .   S
Zn10        O19 1.922       .   S
Zn10        O26 1.922       .   S
Zn11        O14 1.942       .   S
Zn11        O16 1.922       .   S
Zn11        O18 1.922       .   S
Zn11        O22 1.922       .   S
Zn12        O14 1.942       .   S
Zn12        O17 1.922       .   S
Zn12        O20 1.922       .   S
Zn12        O23 1.922       .   S
Zn13        O14 1.942       .   S
Zn13        O21 1.922       .   S
Zn13        O24 1.922       .   S
Zn13        O25 1.922       .   S
O15         C27 1.304       .   A
O16         C28 1.304       .   A
O17         C29 1.304       .   A
O18         C27 1.304       .   A
O19         C29 1.304       .   A
O20         C28 1.304       .   A
O21         C30 1.304       .   A
O22         C31 1.304       .   A
O23         C30 1.304       .   A
O24         C31 1.304       .   A
O25         C32 1.304       .   A
O26         C32 1.304       .   A
C27        C199 1.157       .   S
C28        C226 1.319       .   S
C29        C179 2.109   1_556   S
C30        C216 1.319       .   S
C31        C209 2.109       .   S
C32        C186 1.156       .   S
C33         C34 1.540       .   A
C33         C38 1.540       .   A
C33        C236 1.319       .   S
C34         C35 1.540       .   A
C34         H39 1.140       .   S
C35         C36 1.540       .   A
C35        C196 1.157       .   S
C36         C37 1.540       .   A
C36         H40 1.140       .   S
C37         C38 1.540       .   A
C37        C206 2.109   1_556   S
C38         H41 1.140       .   S
C42         C43 1.540       .   A
C42         C47 1.540       .   A
C42        C219 1.319       .   S
C43         C44 1.540       .   A
C43         H48 1.140       .   S
C44         C45 1.540       .   A
C44        C246 2.109       .   S
C45         C46 1.540       .   A
C45         H49 1.140       .   S
C46         C47 1.540       .   A
C46        C256 1.156       .   S
C47         H50 1.140       .   S
Zn51        O55 1.942       .   S
Zn51        O56 1.922       .   S
Zn51        O60 1.922       .   S
Zn51        O67 1.922       .   S
Zn52        O55 1.942       .   S
Zn52        O57 1.922       .   S
Zn52        O59 1.922       .   S
Zn52        O63 1.922       .   S
Zn53        O55 1.942       .   S
Zn53        O58 1.922       .   S
Zn53        O61 1.922       .   S
Zn53        O64 1.922       .   S
Zn54        O55 1.942       .   S
Zn54        O62 1.922       .   S
Zn54        O65 1.922       .   S
Zn54        O66 1.922       .   S
O56         C68 1.304       .   A
O57         C69 1.304       .   A
O58         C70 1.304       .   A
O59         C68 1.304       .   A
O60         C70 1.304       .   A
O61         C69 1.304       .   A
O62         C71 1.304       .   A
O63         C72 1.304       .   A
O64         C71 1.304       .   A
O65         C72 1.304       .   A
O66         C73 1.304       .   A
O67         C73 1.304       .   A
C68        C239 1.319       .   S
C69        C266 1.156       .   S
C70        C249 2.109   1_565   S
C71        C259 1.156   1_566   S
C72        C276 2.109       .   S
C73        C286 1.318       .   S
C74         C75 1.540       .   A
C74         C79 1.540       .   A
C74        C296 1.318       .   S
C75         C76 1.540       .   A
C75         H80 1.140       .   S
C76         C77 1.540       .   A
C76        C269 1.156   1_455   S
C77         C78 1.540       .   A
C77         H81 1.140       .   S
C78         C79 1.540       .   A
C78        C279 2.109   1_454   S
C79         H82 1.140       .   S
C83         C84 1.540       .   A
C83         C88 1.540       .   A
C83        C309 1.319       .   S
C84         C85 1.540       .   A
C84         H89 1.140       .   S
C85         C86 1.540       .   A
C85        C329 1.156       .   S
C86         C87 1.540       .   A
C86         H90 1.140       .   S
C87         C88 1.540       .   A
C87        C316 2.109       .   S
C88         H91 1.140       .   S
Zn92        O96 1.942       .   S
Zn92        O97 1.922       .   S
Zn92       O101 1.922       .   S
Zn92       O108 1.922       .   S
Zn93        O96 1.942       .   S
Zn93        O98 1.922       .   S
Zn93       O100 1.922       .   S
Zn93       O104 1.922       .   S
Zn94        O96 1.942       .   S
Zn94        O99 1.922       .   S
Zn94       O102 1.922       .   S
Zn94       O105 1.922       .   S
Zn95        O96 1.942       .   S
Zn95       O103 1.922       .   S
Zn95       O106 1.922       .   S
Zn95       O107 1.922       .   S
O97        C109 1.304       .   A
O98        C110 1.304       .   A
O99        C111 1.304       .   A
O100       C109 1.304       .   A
O101       C111 1.304       .   A
O102       C110 1.304       .   A
O103       C112 1.304       .   A
O104       C113 1.304       .   A
O105       C112 1.304       .   A
O106       C113 1.304       .   A
O107       C114 1.304       .   A
O108       C114 1.304       .   A
C109       C336 1.156       .   S
C110       C326 1.156   1_556   S
C111       C319 2.109       .   S
C112       C169 1.319   1_556   S
C113       C346 2.109       .   S
C114       C356 1.319       .   S
C115       C116 1.540       .   A
C115       C120 1.540       .   A
C115       C229 1.319   1_455   S
C116       C117 1.540       .   A
C116       H121 1.140       .   S
C117       C118 1.540       .   A
C117       C339 1.156       .   S
C118       C119 1.540       .   A
C118       H122 1.140       .   S
C119       C120 1.540       .   A
C119       C349 2.109   1_554   S
C120       H123 1.140       .   S
C124       C125 1.540       .   A
C124       C129 1.540       .   A
C124       C359 1.319       .   S
C125       C126 1.540       .   A
C125       H130 1.140       .   S
C126       C127 1.540       .   A
C126       C366 2.109       .   S
C127       C128 1.540       .   A
C127       H131 1.140       .   S
C128       C129 1.540       .   A
C128       C376 1.156       .   S
C129       H132 1.140       .   S
Zn133      O137 1.942       .   S
Zn133      O138 1.922       .   S
Zn133      O142 1.922       .   S
Zn133      O149 1.922       .   S
Zn134      O137 1.942       .   S
Zn134      O139 1.922       .   S
Zn134      O141 1.922       .   S
Zn134      O145 1.922       .   S
Zn135      O137 1.942       .   S
Zn135      O140 1.922       .   S
Zn135      O143 1.922       .   S
Zn135      O146 1.922       .   S
Zn136      O137 1.942       .   S
Zn136      O144 1.922       .   S
Zn136      O147 1.922       .   S
Zn136      O148 1.922       .   S
O138       C150 1.304       .   A
O139       C151 1.304       .   A
O140       C152 1.304       .   A
O141       C150 1.304       .   A
O142       C152 1.304       .   A
O143       C151 1.304       .   A
O144       C153 1.304       .   A
O145       C154 1.304       .   A
O146       C153 1.304       .   A
O147       C154 1.304       .   A
O148       C155 1.304       .   A
O149       C155 1.304       .   A
C150       C379 1.156       .   S
C151       C399 2.109       .   S
C152       C389 1.156       .   S
C153       C306 1.319   1_565   S
C154       C299 1.318       .   S
C155       C369 2.109   1_554   S
C156       C157 1.540       .   A
C156       C161 1.540       .   A
C156       C289 1.318   1_554   S
C157       C158 1.540       .   A
C157       H162 1.140       .   S
C158       C159 1.540       .   A
C158       C386 1.156       .   S
C159       C160 1.540       .   A
C159       H163 1.140       .   S
C160       C161 1.540       .   A
C160       C396 2.109   1_554   S
C161       H164 1.140       .   S
C395       C396 1.540       .   A
C395       C400 1.540       .   A
C395       H401 1.140       .   S
C396       C397 1.540       .   A
C397       C398 1.540       .   A
C397       H402 1.140       .   S
C398       C399 1.540       .   A
C398       H403 1.140       .   S
C399       C400 1.540       .   A
C400       H404 1.140       .   S
C385       C386 1.540       .   A
C385       C390 1.540       .   A
C385       H391 1.140       .   S
C386       C387 1.540       .   A
C387       C388 1.540       .   A
C387       H392 1.140       .   S
C388       C389 1.540       .   A
C388       H393 1.140       .   S
C389       C390 1.540       .   A
C390       H394 1.140       .   S
C375       C376 1.540       .   A
C375       C380 1.540       .   A
C375       H381 1.140       .   S
C376       C377 1.540       .   A
C377       C378 1.540       .   A
C377       H382 1.140       .   S
C378       C379 1.540       .   A
C378       H383 1.140       .   S
C379       C380 1.540       .   A
C380       H384 1.140       .   S
C365       C366 1.540       .   A
C365       C370 1.540       .   A
C365       H371 1.140       .   S
C366       C367 1.540       .   A
C367       C368 1.540       .   A
C367       H372 1.140       .   S
C368       C369 1.540       .   A
C368       H373 1.140       .   S
C369       C370 1.540       .   A
C370       H374 1.140       .   S
C355       C356 1.540       .   A
C355       C360 1.540       .   A
C355       H361 1.140       .   S
C356       C357 1.540       .   A
C357       C358 1.540       .   A
C357       H362 1.140       .   S
C358       C359 1.540       .   A
C358       H363 1.140       .   S
C359       C360 1.540       .   A
C360       H364 1.140       .   S
C345       C346 1.540       .   A
C345       C350 1.540       .   A
C345       H351 1.140       .   S
C346       C347 1.540       .   A
C347       C348 1.540       .   A
C347       H352 1.140       .   S
C348       C349 1.540       .   A
C348       H353 1.140       .   S
C349       C350 1.540       .   A
C350       H354 1.140       .   S
C335       C336 1.540       .   A
C335       C340 1.540       .   A
C335       H341 1.140       .   S
C336       C337 1.540       .   A
C337       C338 1.540       .   A
C337       H342 1.140       .   S
C338       C339 1.540       .   A
C338       H343 1.140       .   S
C339       C340 1.540       .   A
C340       H344 1.140       .   S
C325       C326 1.540       .   A
C325       C330 1.540       .   A
C325       H331 1.140       .   S
C326       C327 1.540       .   A
C327       C328 1.540       .   A
C327       H332 1.140       .   S
C328       C329 1.540       .   A
C328       H333 1.140       .   S
C329       C330 1.540       .   A
C330       H334 1.140       .   S
C315       C316 1.540       .   A
C315       C320 1.540       .   A
C315       H321 1.140       .   S
C316       C317 1.540       .   A
C317       C318 1.540       .   A
C317       H322 1.140       .   S
C318       C319 1.540       .   A
C318       H323 1.140       .   S
C319       C320 1.540       .   A
C320       H324 1.140       .   S
C305       C306 1.540       .   A
C305       C310 1.540       .   A
C305       H311 1.140       .   S
C306       C307 1.540       .   A
C307       C308 1.540       .   A
C307       H312 1.140       .   S
C308       C309 1.540       .   A
C308       H313 1.140       .   S
C309       C310 1.540       .   A
C310       H314 1.140       .   S
C295       C296 1.540       .   A
C295       C300 1.540       .   A
C295       H301 1.140       .   S
C296       C297 1.540       .   A
C297       C298 1.540       .   A
C297       H302 1.140       .   S
C298       C299 1.540       .   A
C298       H303 1.140       .   S
C299       C300 1.540       .   A
C300       H304 1.140       .   S
C285       C286 1.540       .   A
C285       C290 1.540       .   A
C285       H291 1.140       .   S
C286       C287 1.540       .   A
C287       C288 1.540       .   A
C287       H292 1.140       .   S
C288       C289 1.540       .   A
C288       H293 1.140       .   S
C289       C290 1.540       .   A
C290       H294 1.140       .   S
C275       C276 1.540       .   A
C275       C280 1.540       .   A
C275       H281 1.140       .   S
C276       C277 1.540       .   A
C277       C278 1.540       .   A
C277       H282 1.140       .   S
C278       C279 1.540       .   A
C278       H283 1.140       .   S
C279       C280 1.540       .   A
C280       H284 1.140       .   S
C265       C266 1.540       .   A
C265       C270 1.540       .   A
C265       H271 1.140       .   S
C266       C267 1.540       .   A
C267       C268 1.540       .   A
C267       H272 1.140       .   S
C268       C269 1.540       .   A
C268       H273 1.140       .   S
C269       C270 1.540       .   A
C270       H274 1.140       .   S
C255       C256 1.540       .   A
C255       C260 1.540       .   A
C255       H261 1.140       .   S
C256       C257 1.540       .   A
C257       C258 1.540       .   A
C257       H262 1.140       .   S
C258       C259 1.540       .   A
C258       H263 1.140       .   S
C259       C260 1.540       .   A
C260       H264 1.140       .   S
C245       C246 1.540       .   A
C245       C250 1.540       .   A
C245       H251 1.140       .   S
C246       C247 1.540       .   A
C247       C248 1.540       .   A
C247       H252 1.140       .   S
C248       C249 1.540       .   A
C248       H253 1.140       .   S
C249       C250 1.540       .   A
C250       H254 1.140       .   S
C235       C236 1.540       .   A
C235       C240 1.540       .   A
C235       H241 1.140       .   S
C236       C237 1.540       .   A
C237       C238 1.540       .   A
C237       H242 1.140       .   S
C238       C239 1.540       .   A
C238       H243 1.140       .   S
C239       C240 1.540       .   A
C240       H244 1.140       .   S
C225       C226 1.540       .   A
C225       C230 1.540       .   A
C225       H231 1.140       .   S
C226       C227 1.540       .   A
C227       C228 1.540       .   A
C227       H232 1.140       .   S
C228       C229 1.540       .   A
C228       H233 1.140       .   S
C229       C230 1.540       .   A
C230       H234 1.140       .   S
C215       C216 1.540       .   A
C215       C220 1.540       .   A
C215       H221 1.140       .   S
C216       C217 1.540       .   A
C217       C218 1.540       .   A
C217       H222 1.140       .   S
C218       C219 1.540       .   A
C218       H223 1.140       .   S
C219       C220 1.540       .   A
C220       H224 1.140       .   S
C205       C206 1.540       .   A
C205       C210 1.540       .   A
C205       H211 1.140       .   S
C206       C207 1.540       .   A
C207       C208 1.540       .   A
C207       H212 1.140       .   S
C208       C209 1.540       .   A
C208       H213 1.140       .   S
C209       C210 1.540       .   A
C210       H214 1.140       .   S
C195       C196 1.540       .   A
C195       C200 1.540       .   A
C195       H201 1.140       .   S
C196       C197 1.540       .   A
C197       C198 1.540       .   A
C197       H202 1.140       .   S
C198       C199 1.540       .   A
C198       H203 1.140       .   S
C199       C200 1.540       .   A
C200       H204 1.140       .   S
C185       C186 1.540       .   A
C185       C190 1.540       .   A
C185       H191 1.140       .   S
C186       C187 1.540       .   A
C187       C188 1.540       .   A
C187       H192 1.140       .   S
C188       C189 1.540       .   A
C188       H193 1.140       .   S
C189       C190 1.540       .   A
C190       H194 1.140       .   S
C175       C176 1.540       .   A
C175       C180 1.540       .   A
C175       H181 1.140       .   S
C176       C177 1.540       .   A
C177       C178 1.540       .   A
C177       H182 1.140       .   S
C178       C179 1.540       .   A
C178       H183 1.140       .   S
C179       C180 1.540       .   A
C180       H184 1.140       .   S
C165       C166 1.540       .   A
C165       C170 1.540       .   A
C165       H171 1.140       .   S
C166       C167 1.540       .   A
C167       C168 1.540       .   A
C167       H172 1.140       .   S
C168       C169 1.540       .   A
C168       H173 1.140       .   S
C169       C170 1.540       .   A
C170       H174 1.140       .   S
