data_hwx_v1-6c_Zn_1_Ch_v2-3c_triazine_Ch_1-1B_4H_Ch
_audit_creation_date              2024-08-05
_audit_creation_method            'tobacco_3.0'
_symmetry_space_group_name_H-M    'P1'
_symmetry_Int_Tables_number       1
_symmetry_cell_setting            triclinic
loop_
_symmetry_equiv_pos_as_xyz
  x,y,z
_cell_length_a                    36.12091147134886
_cell_length_b                    36.122397627892965
_cell_length_c                    15.72982053104609
_cell_angle_alpha                 89.9994038365517
_cell_angle_beta                  90.00176104041894
_cell_angle_gamma                 89.99994760278453
loop_
_atom_site_label
_atom_site_type_symbol
_atom_site_fract_x
_atom_site_fract_y
_atom_site_fract_z
_atom_site_charge
C1         C    0.5075043834    0.2446347690    0.9999997770          -0.044
N2         N    0.5286512063    0.2473172595    0.9152182473          -0.044
C3         C    0.5709468229    0.2526824905    0.9152184703          -0.044
N4         N    0.5920956166    0.2553652310    0.0000002230          -0.044
C5         C    0.5709487937    0.2526827405    0.0847817527          -0.044
N6         N    0.5286531771    0.2473175095    0.0847815297          -0.044
Zn7       Zn    0.7151905798    0.3116686233    0.4707817259             1.0
Zn8       Zn    0.7960503576    0.3304013662    0.4050822780             1.0
Zn9       Zn    0.7772421473    0.2495619377    0.4707855202             1.0
Zn10      Zn    0.7437434114    0.2781458282    0.2963717872             1.0
O11        O    0.7580566240    0.2924444389    0.4107553278          -0.044
O12        O    0.7218325681    0.3619740230    0.5075318121          -0.044
O13        O    0.8413786568    0.3155677508    0.4592511991          -0.044
O14        O    0.7492131718    0.2380070410    0.5711926741          -0.044
O15        O    0.7812585910    0.3757412190    0.4592475229          -0.044
O16        O    0.7036098079    0.2836509127    0.5711898856          -0.044
O17        O    0.8275559978    0.2561566831    0.5075382768          -0.044
O18        O    0.7522581081    0.2265347913    0.2740303192          -0.044
O19        O    0.8089226482    0.3432619002    0.2902665058          -0.044
O20        O    0.7768772290    0.2055277222    0.4022116570          -0.044
O21        O    0.7704808683    0.3048579015    0.2103722457          -0.044
O22        O    0.6921380423    0.2867082595    0.2740266431          -0.044
O23        O    0.6711537993    0.3113450621    0.4022051923          -0.044
C24        C    0.7502718779    0.3838056979    0.4975985208          -0.044
C25        C    0.8494149193    0.2845745915    0.4976045832          -0.044
C26        C    0.7202210147    0.2546443063    0.6025760343          -0.044
C27        C    0.7658413702    0.2010831798    0.3239121348          -0.044
C28        C    0.7958922333    0.3302445714    0.2189346213          -0.044
C29        C    0.6666983287    0.3003142862    0.3239060725          -0.044
C30        C    0.8060671760    0.5429723421    0.8215759617          -0.044
N31        N    0.8033878660    0.5218256064    0.7367938006          -0.044
C32        C    0.7980290873    0.4795308840    0.7367927607          -0.044
N33        N    0.7953496187    0.4583828972    0.8215738819          -0.044
C34        C    0.7980289288    0.4795296328    0.9063560430          -0.044
N35        N    0.8033877074    0.5218243552    0.9063570829          -0.044
C36        C    0.7734146638    0.0429706740    0.3215733514          -0.044
N37        N    0.7760940705    0.0218235063    0.4063559450          -0.044
C38        C    0.7814529327    0.9795287847    0.4063578500          -0.044
N39        N    0.7841323883    0.9583812307    0.3215771613          -0.044
C40        C    0.7814529817    0.9795283985    0.2367945677          -0.044
N41        N    0.7760941194    0.0218231201    0.2367926627          -0.044
Zn42      Zn    0.7785411643    0.7732236284    0.8507523187             1.0
Zn43      Zn    0.8594019582    0.7544919448    0.9164584013             1.0
Zn44      Zn    0.8405917456    0.8353311856    0.8507540854             1.0
Zn45      Zn    0.8070953716    0.8067466214    0.0251648467             1.0
O46        O    0.8214075599    0.7924483451    0.9107824130          -0.044
O47        O    0.7851835493    0.7229183648    0.8140024781          -0.044
O48        O    0.9047294293    0.7693262600    0.8622933550          -0.044
O49        O    0.8125614882    0.8468858054    0.7503446626          -0.044
O50        O    0.8446103190    0.7091519473    0.8622916433          -0.044
O51        O    0.7669588490    0.8012412931    0.7503433642          -0.044
O52        O    0.8909052988    0.8287371898    0.8140054881          -0.044
O53        O    0.8156094931    0.8583577520    0.0475073423          -0.044
O54        O    0.8722757091    0.7416314580    0.0312751691          -0.044
O55        O    0.8402268783    0.8793653161    0.9193281884          -0.044
O56        O    0.8338341934    0.7800348236    0.1111664561          -0.044
O57        O    0.7554903828    0.7981834393    0.0475056306          -0.044
O58        O    0.7345051288    0.7735464911    0.9193251784          -0.044
C59        C    0.8136233144    0.7010870777    0.8239380093          -0.044
C60        C    0.9127647802    0.8003195769    0.8239408320          -0.044
C61        C    0.7835692520    0.8302481694    0.7189587802          -0.044
C62        C    0.8291918054    0.8838096124    0.9976268168          -0.044
C63        C    0.8592458679    0.7546485207    0.1026060458          -0.044
C64        C    0.7300503397    0.7845771132    0.9976239941          -0.044
C65        C    0.0719716417    0.7446406301    0.5000065452          -0.044
N66        N    0.0508244775    0.7473236810    0.5847874107          -0.044
C67        C    0.0085289804    0.7526899313    0.5847858594          -0.044
N68        N    0.9873806474    0.7553731305    0.5000034425          -0.044
C69        C    0.0085278115    0.7526900796    0.4152225770          -0.044
N70        N    0.0508233087    0.7473238293    0.4152241283          -0.044
C71        C    0.3060643157    0.9784930876    0.3215820338          -0.044
N72        N    0.3033850005    0.9996405638    0.2367998306          -0.044
C73        C    0.2980263953    0.0419353180    0.2367987066          -0.044
N74        N    0.2953471053    0.0630825961    0.3215797858          -0.044
C75        C    0.2980264204    0.0419351199    0.4063619890          -0.044
N76        N    0.3033850256    0.9996403657    0.4063631130          -0.044
Zn77      Zn    0.2437461018    0.2433181589    0.7963920830             1.0
Zn78      Zn    0.2151940463    0.2097946823    0.9708035498             1.0
Zn79      Zn    0.2960539239    0.1910629444    0.9051039113             1.0
Zn80      Zn    0.2772448371    0.2719020302    0.9708044142             1.0
O81        O    0.2580597273    0.2290194539    0.9107759896          -0.044
O82        O    0.1921407941    0.2347552251    0.7740478072          -0.044
O83        O    0.2218367388    0.1594892741    0.0075553953          -0.044
O84        O    0.3089261404    0.1782027959    0.7902884683          -0.044
O85        O    0.1711571214    0.2101179215    0.9022274796          -0.044
O86        O    0.2704837168    0.2166065568    0.7103932252          -0.044
O87        O    0.2812628351    0.1457228167    0.9592709661          -0.044
O88        O    0.3275588453    0.2653077425    0.0075568680          -0.044
O89        O    0.2036131294    0.2378120523    0.0712108147          -0.044
O90        O    0.3413821484    0.2058969267    0.9592718035          -0.044
O91        O    0.2492159225    0.2834564108    0.0712114500          -0.044
O92        O    0.2768792279    0.3159363899    0.9022289523          -0.044
O93        O    0.2522601074    0.2949293350    0.7740486446          -0.044
C94        C    0.1667013527    0.2211488189    0.8239280063          -0.044
C95        C    0.2502763013    0.1376579242    0.9976225918          -0.044
C96        C    0.2958954168    0.1912201396    0.7189562507          -0.044
C97        C    0.3494181018    0.2368900889    0.9976239729          -0.044
C98        C    0.2202240377    0.2668187682    0.1025957285          -0.044
C99        C    0.2658431532    0.3203809837    0.8239293873          -0.044
C100       C    0.0075035608    0.2768333469    0.4999941616          -0.044
N101       N    0.0286516704    0.2741507265    0.5847769689          -0.044
C102       C    0.0709473050    0.2687855599    0.5847793012          -0.044
N103       N    0.0920948300    0.2661030136    0.4999988261          -0.044
C104       C    0.0709467205    0.2687856340    0.4152160188          -0.044
N105       N    0.0286510859    0.2741508007    0.4152136865          -0.044
C106       C    0.2733958117    0.4784920258    0.8215793556          -0.044
N107       N    0.2760751656    0.4996390527    0.9063611262          -0.044
C108       C    0.2814339578    0.5419337734    0.9063613852          -0.044
N109       N    0.2841133962    0.5630814672    0.8215798735          -0.044
C110       C    0.2814340423    0.5419344403    0.7367981028          -0.044
N111       N    0.2760752501    0.4996397196    0.7367978439          -0.044
Zn112     Zn    0.3405924337    0.6861275712    0.3507593651             1.0
Zn113     Zn    0.3070970880    0.7147120361    0.5251699405             1.0
Zn114     Zn    0.3594043037    0.7669661476    0.4164614038             1.0
Zn115     Zn    0.2785429780    0.7482363665    0.3507570290             1.0
O116       O    0.3214092008    0.7290105303    0.4107869346          -0.044
O117       O    0.3402269689    0.6420931462    0.4193345562          -0.044
O118       O    0.3338366455    0.7414229220    0.6111704809          -0.044
O119       O    0.4047313474    0.7521311663    0.3622960229          -0.044
O120       O    0.3156103395    0.6631006374    0.5475135734          -0.044
O121       O    0.3909059989    0.6927207249    0.3140098296          -0.044
O122       O    0.3722786235    0.7798258722    0.5312776569          -0.044
O123       O    0.2851861673    0.7985416592    0.3140058494          -0.044
O124       O    0.2554923198    0.7232761496    0.5475113101          -0.044
O125       O    0.3446133277    0.8123066785    0.3622937595          -0.044
O126       O    0.2345071373    0.7479140805    0.4193305759          -0.044
O127       O    0.2669598612    0.7202193746    0.2503489419          -0.044
O128       O    0.3125616731    0.6745739525    0.2503506588          -0.044
C129       C    0.3291920446    0.6376487256    0.4976334640          -0.044
C130       C    0.3592487550    0.7668087556    0.6026090546          -0.044
C131       C    0.4127660244    0.7211378579    0.3239441377          -0.044
C132       C    0.3136263571    0.8203723351    0.3239404052          -0.044
C133       C    0.2300523773    0.7368832028    0.4976297315          -0.044
C134       C    0.2835696466    0.6912123050    0.2189648146          -0.044
C135       C    0.5719694829    0.7768236411    0.0000076218          -0.044
N136       N    0.5508224346    0.7741405872    0.0847887610          -0.044
C137       C    0.5085269516    0.7687743036    0.0847877571          -0.044
N138       N    0.4873785168    0.7660910738    0.0000056139          -0.044
C139       C    0.5085255651    0.7687741277    0.9152244746          -0.044
N140       N    0.5508210482    0.7741404113    0.9152254786          -0.044
C371       C    0.4263948924    0.7551912857    0.8508501050          -0.044
C372       C    0.4653882888    0.7682061842    0.8248864124          -0.044
C373       C    0.4728805564    0.7808063401    0.7329530720          -0.044
C374       C    0.4413794277    0.7803915976    0.6669834242          -0.044
C375       C    0.4023860314    0.7673766992    0.6929471168          -0.044
C376       C    0.3948937637    0.7547765432    0.7848804573          -0.044
H377       H    0.4208486683    0.7458638975    0.9189046557          -0.044
H378       H    0.5017435669    0.7904403205    0.7137319295          -0.044
H379       H    0.4469256518    0.7897189858    0.5989288735          -0.044
H380       H    0.3660307532    0.7451425629    0.8041015997          -0.044
C361       C    0.4492789821    0.7761600972    0.1429737682          -0.044
C362       C    0.4879949278    0.7585606114    0.1360650854          -0.044
C363       C    0.4993624336    0.7273565949    0.1974572646          -0.044
C364       C    0.4720139938    0.7137520643    0.2657581266          -0.044
C365       C    0.4332980482    0.7313515501    0.2726668094          -0.044
C366       C    0.4219305423    0.7625555666    0.2112746302          -0.044
H367       H    0.4408640752    0.7992591744    0.0975276095          -0.044
H368       H    0.5280201987    0.7143285305    0.1923454250          -0.044
H369       H    0.4804289008    0.6906529871    0.3112042852          -0.044
H370       H    0.3932727772    0.7755836310    0.2163864697          -0.044
C351       C    0.2868329945    0.5531595858    0.5906154681          -0.044
C352       C    0.2916748896    0.5624586526    0.6855135343          -0.044
C353       C    0.3101549385    0.5990906497    0.7121138497          -0.044
C354       C    0.3237930924    0.6264235800    0.6438160988          -0.044
C355       C    0.3189511973    0.6171245133    0.5489180326          -0.044
C356       C    0.3004711484    0.5804925162    0.5223177172          -0.044
H357       H    0.2731529583    0.5260423932    0.5709243255          -0.044
H358       H    0.3137394769    0.6059749452    0.7823579028          -0.044
H359       H    0.3374731286    0.6535407727    0.6635072413          -0.044
H360       H    0.2968866100    0.5736082207    0.4520736640          -0.044
C341       C    0.2478359278    0.6100566006    0.0076677269          -0.044
C342       C    0.2820511367    0.5850728101    0.9966986270          -0.044
C343       C    0.3167170111    0.5915892487    0.0516940000          -0.044
C344       C    0.3171676767    0.6230894778    0.1176584729          -0.044
C345       C    0.2829524678    0.6480732684    0.1286275729          -0.044
C346       C    0.2482865933    0.6415568298    0.0736321998          -0.044
H347       H    0.2221741766    0.6052327435    0.9669568663          -0.044
H348       H    0.3420440842    0.5730965419    0.0435764516          -0.044
H349       H    0.3428294278    0.6279133349    0.1583693335          -0.044
H350       H    0.2229595202    0.6600495365    0.0817497482          -0.044
C331       C    0.2679181592    0.3784163335    0.9078409277          -0.044
C332       C    0.2675853326    0.3568526176    0.8233873031          -0.044
C333       C    0.2692866559    0.3778727888    0.7383007469          -0.044
C334       C    0.2713208058    0.4204566760    0.7376678152          -0.044
C335       C    0.2716536324    0.4420203919    0.8221214398          -0.044
C336       C    0.2699523090    0.4210002207    0.9072079960          -0.044
H337       H    0.2666587380    0.3628559470    0.9708270797          -0.044
H338       H    0.2690403527    0.3619120681    0.6757857814          -0.044
H339       H    0.2725802270    0.4360170625    0.6746816632          -0.044
H340       H    0.2701986122    0.4369609414    0.9697229615          -0.044
C321       C    0.1648709604    0.2311079464    0.2360372550          -0.044
C322       C    0.1770853677    0.2673871598    0.1929378098          -0.044
C323       C    0.1577997864    0.3040814145    0.2158064285          -0.044
C324       C    0.1262997978    0.3044964558    0.2817744923          -0.044
C325       C    0.1140853905    0.2682172424    0.3248739375          -0.044
C326       C    0.1333709718    0.2315229877    0.3020053188          -0.044
H327       H    0.1791472999    0.2039446669    0.2191085373          -0.044
H328       H    0.1668402370    0.3309363207    0.1839050961          -0.044
H329       H    0.1120234584    0.3316597353    0.2987032100          -0.044
H330       H    0.1243305213    0.2046680816    0.3339066512          -0.044
C311       C    0.1456018606    0.2129556331    0.6843572395          -0.044
C312       C    0.1461727848    0.2313615890    0.7726572709          -0.044
C313       C    0.1193952531    0.2633731453    0.7926536852          -0.044
C314       C    0.0920467971    0.2769787457    0.7243500680          -0.044
C315       C    0.0914758729    0.2585727898    0.6360500365          -0.044
C316       C    0.1182534047    0.2265612335    0.6160536223          -0.044
H317       H    0.1654241893    0.1892587667    0.6695546990          -0.044
H318       H    0.1198170017    0.2769981816    0.8580136875          -0.044
H319       H    0.0722244684    0.3006756121    0.7391526085          -0.044
H320       H    0.1178316560    0.2129361973    0.5506936199          -0.044
C301       C    0.2325152291    0.0928735727    0.0973641975          -0.044
C302       C    0.2605158353    0.1171311609    0.0489115370          -0.044
C303       C    0.3021519545    0.1140542093    0.0687579888          -0.044
C304       C    0.3157874675    0.0867196696    0.1370571010          -0.044
C305       C    0.2877868614    0.0624620814    0.1855097615          -0.044
C306       C    0.2461507421    0.0655390329    0.1656633097          -0.044
H307       H    0.2016936863    0.0951513160    0.0826726683          -0.044
H308       H    0.3228792214    0.1320094925    0.0328941298          -0.044
H309       H    0.3466090103    0.0844419262    0.1517486302          -0.044
H310       H    0.2254234753    0.0475837497    0.2015271687          -0.044
C291       C    0.3329291467    0.0948738016    0.5459602785          -0.044
C292       C    0.2974105907    0.0850763652    0.4966972802          -0.044
C293       C    0.2614423626    0.1067801934    0.5133961216          -0.044
C294       C    0.2609926905    0.1382814579    0.5793579612          -0.044
C295       C    0.2965112465    0.1480788943    0.6286209595          -0.044
C296       C    0.3324794746    0.1263750662    0.6119221181          -0.044
H297       H    0.3595549779    0.0788073314    0.5335987985          -0.044
H298       H    0.2351505154    0.0995288526    0.4769323538          -0.044
H299       H    0.2343668593    0.1543479281    0.5917194412          -0.044
H300       H    0.3587713219    0.1336264069    0.6483858859          -0.044
C281       C    0.3149230064    0.8785733387    0.4073462271          -0.044
C282       C    0.3118818827    0.8568489404    0.3233963565          -0.044
C283       C    0.3068042127    0.8777083131    0.2388113490          -0.044
C284       C    0.3047676664    0.9202920841    0.2381762119          -0.044
C285       C    0.3078087900    0.9420164823    0.3221260824          -0.044
C286       C    0.3128864601    0.9211571097    0.4067110900          -0.044
H287       H    0.3186818011    0.8631319849    0.4699611028          -0.044
H288       H    0.3045530231    0.8616286509    0.1766692763          -0.044
H289       H    0.3010088717    0.9357334379    0.1755613362          -0.044
H290       H    0.3151376497    0.9372367719    0.4688531627          -0.044
C271       C    0.1280384254    0.7100307197    0.4561377692          -0.044
C272       C    0.1084290900    0.7428515695    0.4994583913          -0.044
C273       C    0.1314026741    0.7735827662    0.5421387605          -0.044
C274       C    0.1739855936    0.7714931131    0.5414985075          -0.044
C275       C    0.1935949289    0.7386722633    0.4981778854          -0.044
C276       C    0.1706213448    0.7079410666    0.4554975162          -0.044
H277       H    0.1110320060    0.6872816520    0.4245432102          -0.044
H278       H    0.1168886408    0.7978776152    0.5742058817          -0.044
H279       H    0.1909920130    0.7942421808    0.5730930665          -0.044
H280       H    0.1851353781    0.6836462177    0.4234303950          -0.044
C261       C    0.6741099139    0.7461732536    0.0208293881          -0.044
C262       C    0.6935928742    0.7827889654    0.9981737192          -0.044
C263       C    0.6704928716    0.8173160889    0.9761601391          -0.044
C264       C    0.6279099087    0.8152275007    0.9768022278          -0.044
C265       C    0.6084269484    0.7786117889    0.9994578966          -0.044
C266       C    0.6315269510    0.7440846654    0.0214714768          -0.044
H267       H    0.6912099158    0.7206142140    0.0371251552          -0.044
H268       H    0.6849133585    0.8444200014    0.9593897969          -0.044
H269       H    0.6108099068    0.8407865403    0.9605064607          -0.044
H270       H    0.6171064641    0.7169807529    0.0382418190          -0.044
C251       C    0.9429161246    0.7575868220    0.1636562776          -0.044
C252       C    0.9023852547    0.7540825718    0.1929457422          -0.044
C253       C    0.8933559699    0.7501650499    0.2882037760          -0.044
C254       C    0.9248575549    0.7497517782    0.3541723452          -0.044
C255       C    0.9653884247    0.7532560284    0.3248828806          -0.044
C256       C    0.9744177096    0.7571735503    0.2296248468          -0.044
H257       H    0.9496001406    0.7604868057    0.0931405902          -0.044
H258       H    0.8633548783    0.7475710924    0.3098867483          -0.044
H259       H    0.9181735388    0.7468517945    0.4246880326          -0.044
H260       H    0.0044188011    0.7597675078    0.2079418745          -0.044
C241       C    0.9490535710    0.8175153273    0.7069779608          -0.044
C242       C    0.9332975310    0.7901073301    0.7726637426          -0.044
C243       C    0.9448908403    0.7490967569    0.7700491275          -0.044
C244       C    0.9722401896    0.7354941808    0.7017487306          -0.044
C245       C    0.9879962296    0.7629021780    0.6360629488          -0.044
C246       C    0.9764029203    0.8039127513    0.6386775639          -0.044
H247       H    0.9404715108    0.8478738036    0.7089134551          -0.044
H248       H    0.9332286424    0.7288081569    0.8186694270          -0.044
H249       H    0.9808222498    0.7051357046    0.6998132362          -0.044
H250       H    0.9880651182    0.8242013512    0.5900572644          -0.044
C231       C    0.7636311350    0.9395194847    0.1269262720          -0.044
C232       C    0.7916896280    0.9590033985    0.1855097752          -0.044
C233       C    0.8333808865    0.9511529192    0.1757941954          -0.044
C234       C    0.8470136521    0.9238185261    0.1074951124          -0.044
C235       C    0.8189551591    0.9043346123    0.0489116092          -0.044
C236       C    0.7772639006    0.9121850916    0.0586271890          -0.044
H237       H    0.7327687748    0.9453308785    0.1341183246          -0.044
H238       H    0.8541510027    0.9655745945    0.2191571888          -0.044
H239       H    0.8778760123    0.9180071323    0.1003030599          -0.044
H240       H    0.7564937844    0.8977634164    0.0152641956          -0.044
C221       C    0.7960686265    0.9438245882    0.5875769415          -0.044
C222       C    0.7820645108    0.9363893787    0.4966938820          -0.044
C223       C    0.7685069767    0.8974532675    0.4717752556          -0.044
C224       C    0.7689535583    0.8659523659    0.5377396887          -0.044
C225       C    0.7829576739    0.8733875754    0.6286227482          -0.044
C226       C    0.7965152080    0.9123236866    0.6535413746          -0.044
H227       H    0.8061047231    0.9726474237    0.6060231975          -0.044
H228       H    0.7581407511    0.8919485196    0.4045031494          -0.044
H229       H    0.7589174616    0.8371295304    0.5192934327          -0.044
H230       H    0.8068814337    0.9178284344    0.7208134808          -0.044
C211       C    0.8087148950    0.6005031817    0.9072238024          -0.044
C212       C    0.8078102083    0.5794458791    0.8221208333          -0.044
C213       C    0.8089405586    0.6009724073    0.7376540164          -0.044
C214       C    0.8109755955    0.6435562381    0.7382901686          -0.044
C215       C    0.8118802821    0.6646135407    0.8233931377          -0.044
C216       C    0.8107499319    0.6430870125    0.9078599546          -0.044
H217       H    0.8078781422    0.5845679596    0.9697511863          -0.044
H218       H    0.8082709485    0.5853865480    0.6746584280          -0.044
H219       H    0.8118123483    0.6594914602    0.6757627846          -0.044
H220       H    0.8114195419    0.6586728718    0.9708555430          -0.044
C201       C    0.9081369454    0.2970351121    0.4213329812          -0.044
C202       C    0.8858760946    0.2827891699    0.4981557097          -0.044
C203       C    0.9061983893    0.2664580270    0.5756221009          -0.044
C204       C    0.9487815347    0.2643728263    0.5762657636          -0.044
C205       C    0.9710423855    0.2786187685    0.4994430351          -0.044
C206       C    0.9507200909    0.2949499114    0.4219766439          -0.044
H207       H    0.8930931689    0.3091243997    0.3639877305          -0.044
H208       H    0.8897216298    0.2559127143    0.6324884631          -0.044
H209       H    0.9638253113    0.2522835387    0.6336110143          -0.044
H210       H    0.9671968504    0.3054952241    0.3651102817          -0.044
C191       C    0.7508322734    0.1422581774    0.3973308178          -0.044
C192       C    0.7675883407    0.1646105563    0.3233726356          -0.044
C193       C    0.7863840843    0.1443793058    0.2487845609          -0.044
C194       C    0.7884237606    0.1017956764    0.2481546684          -0.044
C195       C    0.7716676933    0.0794432975    0.3221128506          -0.044
C196       C    0.7528719497    0.0996745480    0.3967009253          -0.044
H197       H    0.7369185411    0.1572345577    0.4525453666          -0.044
H198       H    0.7987874606    0.1609238170    0.1940386168          -0.044
H199       H    0.8023374929    0.0868192962    0.1929401196          -0.044
H200       H    0.7404685734    0.0831300369    0.4514468694          -0.044
C181       C    0.7715652338    0.4387495921    0.0743569557          -0.044
C182       C    0.7974114690    0.4363894046    0.9966846471          -0.044
C183       C    0.8228068162    0.4025269146    0.9849730235          -0.044
C184       C    0.8223559283    0.3710246121    0.0509337086          -0.044
C185       C    0.7965096932    0.3733847996    0.1286060173          -0.044
C186       C    0.7711143459    0.4072472897    0.1403176409          -0.044
H187       H    0.7527660806    0.4638166302    0.0830265992          -0.044
H188       H    0.8419389113    0.4007788405    0.9274798860          -0.044
H189       H    0.8411550815    0.3459575740    0.0422640652          -0.044
H190       H    0.7519822508    0.4089953637    0.1978107783          -0.044
C171       C    0.7786518210    0.4187388763    0.7099141840          -0.044
C172       C    0.7877870337    0.4590015753    0.6854949509          -0.044
C173       C    0.7832856953    0.4719309900    0.5927764077          -0.044
C174       C    0.7696491443    0.4445977056    0.5244770975          -0.044
C175       C    0.7605139316    0.4043350066    0.5488963306          -0.044
C176       C    0.7650152699    0.3914055920    0.6416148738          -0.044
H177       H    0.7819839805    0.4091677512    0.7785499887          -0.044
H178       H    0.7900474048    0.5017337059    0.5746984439          -0.044
H179       H    0.7663169848    0.4541688307    0.4558412928          -0.044
H180       H    0.7582535604    0.3616028761    0.6596928376          -0.044
C161       C    0.6603425918    0.2674582496    0.1963442916          -0.044
C162       C    0.6461727827    0.2901036520    0.2726456958          -0.044
C163       C    0.6046537521    0.2991439157    0.2806453168          -0.044
C164       C    0.5773045306    0.2855387771    0.2123435336          -0.044
C165       C    0.5914743397    0.2628933748    0.1360421294          -0.044
C166       C    0.6329933704    0.2538531110    0.1280425084          -0.044
H167       H    0.6910774587    0.2607661063    0.1904224942          -0.044
H168       H    0.5941639958    0.3159062481    0.3371235982          -0.044
H169       H    0.5465696638    0.2922309204    0.2182653309          -0.044
H170       H    0.6434831267    0.2370907786    0.0715642270          -0.044
C151       C    0.6050524475    0.2571671673    0.7296099476 -0.027999999999999997
C152       C    0.6140852313    0.2532494312    0.8248686455          -0.044
C153       C    0.6546167026    0.2497456623    0.8541559502          -0.044
C154       C    0.6861153902    0.2501596295    0.7881845570          -0.044
C155       C    0.6770826064    0.2540773656    0.6929258591          -0.044
C156       C    0.6365511350    0.2575811345    0.6636385544          -0.044
H157       H    0.5750486310    0.2597608664    0.7079297350          -0.044
H158       H    0.6613040198    0.2468456570    0.9246670268          -0.044
H159       H    0.7161192066    0.2475659304    0.8098647696          -0.044
H160       H    0.6298638179    0.2604811398    0.5931274778          -0.044
C141       C    0.4481553631    0.2761786660    0.9683970565          -0.044
C142       C    0.4710443477    0.2428485842    0.9994518363          -0.044
C143       C    0.4513502273    0.2074323471    0.0298666547          -0.044
C144       C    0.4087671222    0.2053461919    0.0292266933          -0.044
C145       C    0.3858781375    0.2386762737    0.9981719135          -0.044
C146       C    0.4055722580    0.2740925108    0.9677570952          -0.044
H147       H    0.4627341276    0.3023958805    0.9458821910          -0.044
H148       H    0.4682919491    0.1827604182    0.0528542548          -0.044
H149       H    0.3941883577    0.1791289774    0.0517415589          -0.044
H150       H    0.3886305361    0.2987644397    0.9447694950          -0.044
loop_
_geom_bond_atom_site_label_1
_geom_bond_atom_site_label_2
_geom_bond_distance
_geom_bond_site_symmetry_2
_ccdc_geom_bond_type
C1           N2 1.540       .   A
C1           N6 1.540       .   A
C1         C142 1.319       .   S
N2           C3 1.540       .   A
C3           N4 1.540       .   A
C3         C152 2.109       .   S
N4           C5 1.540       .   A
C5           N6 1.540       .   A
C5         C165 1.156       .   S
Zn7         O11 1.942       .   S
Zn7         O12 1.922       .   S
Zn7         O16 1.922       .   S
Zn7         O23 1.922       .   S
Zn8         O11 1.942       .   S
Zn8         O13 1.922       .   S
Zn8         O15 1.922       .   S
Zn8         O19 1.922       .   S
Zn9         O11 1.942       .   S
Zn9         O14 1.922       .   S
Zn9         O17 1.922       .   S
Zn9         O20 1.922       .   S
Zn10        O11 1.942       .   S
Zn10        O18 1.922       .   S
Zn10        O21 1.922       .   S
Zn10        O22 1.922       .   S
O12         C24 1.304       .   A
O13         C25 1.304       .   A
O14         C26 1.304       .   A
O15         C24 1.304       .   A
O16         C26 1.304       .   A
O17         C25 1.304       .   A
O18         C27 1.304       .   A
O19         C28 1.304       .   A
O20         C27 1.304       .   A
O21         C28 1.304       .   A
O22         C29 1.304       .   A
O23         C29 1.304       .   A
C24        C175 1.157       .   S
C25        C202 1.319       .   S
C26        C155 2.109   1_556   S
C27        C192 1.319       .   S
C28        C185 2.109       .   S
C29        C162 1.156       .   S
C30         N31 1.540       .   A
C30         N35 1.540       .   A
C30        C212 1.319       .   S
N31         C32 1.540       .   A
C32         N33 1.540       .   A
C32        C172 1.157       .   S
N33         C34 1.540       .   A
C34         N35 1.540       .   A
C34        C182 2.109   1_556   S
C36         N37 1.540       .   A
C36         N41 1.540       .   A
C36        C195 1.319       .   S
N37         C38 1.540       .   A
C38         N39 1.540       .   A
C38        C222 2.109       .   S
N39         C40 1.540       .   A
C40         N41 1.540       .   A
C40        C232 1.156       .   S
Zn42        O46 1.942       .   S
Zn42        O47 1.922       .   S
Zn42        O51 1.922       .   S
Zn42        O58 1.922       .   S
Zn43        O46 1.942       .   S
Zn43        O48 1.922       .   S
Zn43        O50 1.922       .   S
Zn43        O54 1.922       .   S
Zn44        O46 1.942       .   S
Zn44        O49 1.922       .   S
Zn44        O52 1.922       .   S
Zn44        O55 1.922       .   S
Zn45        O46 1.942       .   S
Zn45        O53 1.922       .   S
Zn45        O56 1.922       .   S
Zn45        O57 1.922       .   S
O47         C59 1.304       .   A
O48         C60 1.304       .   A
O49         C61 1.304       .   A
O50         C59 1.304       .   A
O51         C61 1.304       .   A
O52         C60 1.304       .   A
O53         C62 1.304       .   A
O54         C63 1.304       .   A
O55         C62 1.304       .   A
O56         C63 1.304       .   A
O57         C64 1.304       .   A
O58         C64 1.304       .   A
C59        C215 1.319       .   S
C60        C242 1.156       .   S
C61        C225 2.109   1_565   S
C62        C235 1.156   1_566   S
C63        C252 2.109       .   S
C64        C262 1.318       .   S
C65         N66 1.540       .   A
C65         N70 1.540       .   A
C65        C272 1.318       .   S
N66         C67 1.540       .   A
C67         N68 1.540       .   A
C67        C245 1.156   1_455   S
N68         C69 1.540       .   A
C69         N70 1.540       .   A
C69        C255 2.109   1_454   S
C71         N72 1.540       .   A
C71         N76 1.540       .   A
C71        C285 1.319       .   S
N72         C73 1.540       .   A
C73         N74 1.540       .   A
C73        C305 1.156       .   S
N74         C75 1.540       .   A
C75         N76 1.540       .   A
C75        C292 2.109       .   S
Zn77        O81 1.942       .   S
Zn77        O82 1.922       .   S
Zn77        O86 1.922       .   S
Zn77        O93 1.922       .   S
Zn78        O81 1.942       .   S
Zn78        O83 1.922       .   S
Zn78        O85 1.922       .   S
Zn78        O89 1.922       .   S
Zn79        O81 1.942       .   S
Zn79        O84 1.922       .   S
Zn79        O87 1.922       .   S
Zn79        O90 1.922       .   S
Zn80        O81 1.942       .   S
Zn80        O88 1.922       .   S
Zn80        O91 1.922       .   S
Zn80        O92 1.922       .   S
O82         C94 1.304       .   A
O83         C95 1.304       .   A
O84         C96 1.304       .   A
O85         C94 1.304       .   A
O86         C96 1.304       .   A
O87         C95 1.304       .   A
O88         C97 1.304       .   A
O89         C98 1.304       .   A
O90         C97 1.304       .   A
O91         C98 1.304       .   A
O92         C99 1.304       .   A
O93         C99 1.304       .   A
C94        C312 1.156       .   S
C95        C302 1.156   1_556   S
C96        C295 2.109       .   S
C97        C145 1.319   1_556   S
C98        C322 2.109       .   S
C99        C332 1.319       .   S
C100       N101 1.540       .   A
C100       N105 1.540       .   A
C100       C205 1.319   1_455   S
N101       C102 1.540       .   A
C102       N103 1.540       .   A
C102       C315 1.156       .   S
N103       C104 1.540       .   A
C104       N105 1.540       .   A
C104       C325 2.109   1_554   S
C106       N107 1.540       .   A
C106       N111 1.540       .   A
C106       C335 1.319       .   S
N107       C108 1.540       .   A
C108       N109 1.540       .   A
C108       C342 2.109       .   S
N109       C110 1.540       .   A
C110       N111 1.540       .   A
C110       C352 1.156       .   S
Zn112      O116 1.942       .   S
Zn112      O117 1.922       .   S
Zn112      O121 1.922       .   S
Zn112      O128 1.922       .   S
Zn113      O116 1.942       .   S
Zn113      O118 1.922       .   S
Zn113      O120 1.922       .   S
Zn113      O124 1.922       .   S
Zn114      O116 1.942       .   S
Zn114      O119 1.922       .   S
Zn114      O122 1.922       .   S
Zn114      O125 1.922       .   S
Zn115      O116 1.942       .   S
Zn115      O123 1.922       .   S
Zn115      O126 1.922       .   S
Zn115      O127 1.922       .   S
O117       C129 1.304       .   A
O118       C130 1.304       .   A
O119       C131 1.304       .   A
O120       C129 1.304       .   A
O121       C131 1.304       .   A
O122       C130 1.304       .   A
O123       C132 1.304       .   A
O124       C133 1.304       .   A
O125       C132 1.304       .   A
O126       C133 1.304       .   A
O127       C134 1.304       .   A
O128       C134 1.304       .   A
C129       C355 1.156       .   S
C130       C375 2.109       .   S
C131       C365 1.156       .   S
C132       C282 1.319   1_565   S
C133       C275 1.318       .   S
C134       C345 2.109   1_554   S
C135       N136 1.540       .   A
C135       N140 1.540       .   A
C135       C265 1.318   1_554   S
N136       C137 1.540       .   A
C137       N138 1.540       .   A
C137       C362 1.156       .   S
N138       C139 1.540       .   A
C139       N140 1.540       .   A
C139       C372 2.109   1_554   S
C371       C372 1.540       .   A
C371       C376 1.540       .   A
C371       H377 1.140       .   S
C372       C373 1.540       .   A
C373       C374 1.540       .   A
C373       H378 1.140       .   S
C374       C375 1.540       .   A
C374       H379 1.140       .   S
C375       C376 1.540       .   A
C376       H380 1.140       .   S
C361       C362 1.540       .   A
C361       C366 1.540       .   A
C361       H367 1.140       .   S
C362       C363 1.540       .   A
C363       C364 1.540       .   A
C363       H368 1.140       .   S
C364       C365 1.540       .   A
C364       H369 1.140       .   S
C365       C366 1.540       .   A
C366       H370 1.140       .   S
C351       C352 1.540       .   A
C351       C356 1.540       .   A
C351       H357 1.140       .   S
C352       C353 1.540       .   A
C353       C354 1.540       .   A
C353       H358 1.140       .   S
C354       C355 1.540       .   A
C354       H359 1.140       .   S
C355       C356 1.540       .   A
C356       H360 1.140       .   S
C341       C342 1.540       .   A
C341       C346 1.540       .   A
C341       H347 1.140       .   S
C342       C343 1.540       .   A
C343       C344 1.540       .   A
C343       H348 1.140       .   S
C344       C345 1.540       .   A
C344       H349 1.140       .   S
C345       C346 1.540       .   A
C346       H350 1.140       .   S
C331       C332 1.540       .   A
C331       C336 1.540       .   A
C331       H337 1.140       .   S
C332       C333 1.540       .   A
C333       C334 1.540       .   A
C333       H338 1.140       .   S
C334       C335 1.540       .   A
C334       H339 1.140       .   S
C335       C336 1.540       .   A
C336       H340 1.140       .   S
C321       C322 1.540       .   A
C321       C326 1.540       .   A
C321       H327 1.140       .   S
C322       C323 1.540       .   A
C323       C324 1.540       .   A
C323       H328 1.140       .   S
C324       C325 1.540       .   A
C324       H329 1.140       .   S
C325       C326 1.540       .   A
C326       H330 1.140       .   S
C311       C312 1.540       .   A
C311       C316 1.540       .   A
C311       H317 1.140       .   S
C312       C313 1.540       .   A
C313       C314 1.540       .   A
C313       H318 1.140       .   S
C314       C315 1.540       .   A
C314       H319 1.140       .   S
C315       C316 1.540       .   A
C316       H320 1.140       .   S
C301       C302 1.540       .   A
C301       C306 1.540       .   A
C301       H307 1.140       .   S
C302       C303 1.540       .   A
C303       C304 1.540       .   A
C303       H308 1.140       .   S
C304       C305 1.540       .   A
C304       H309 1.140       .   S
C305       C306 1.540       .   A
C306       H310 1.140       .   S
C291       C292 1.540       .   A
C291       C296 1.540       .   A
C291       H297 1.140       .   S
C292       C293 1.540       .   A
C293       C294 1.540       .   A
C293       H298 1.140       .   S
C294       C295 1.540       .   A
C294       H299 1.140       .   S
C295       C296 1.540       .   A
C296       H300 1.140       .   S
C281       C282 1.540       .   A
C281       C286 1.540       .   A
C281       H287 1.140       .   S
C282       C283 1.540       .   A
C283       C284 1.540       .   A
C283       H288 1.140       .   S
C284       C285 1.540       .   A
C284       H289 1.140       .   S
C285       C286 1.540       .   A
C286       H290 1.140       .   S
C271       C272 1.540       .   A
C271       C276 1.540       .   A
C271       H277 1.140       .   S
C272       C273 1.540       .   A
C273       C274 1.540       .   A
C273       H278 1.140       .   S
C274       C275 1.540       .   A
C274       H279 1.140       .   S
C275       C276 1.540       .   A
C276       H280 1.140       .   S
C261       C262 1.540       .   A
C261       C266 1.540       .   A
C261       H267 1.140       .   S
C262       C263 1.540       .   A
C263       C264 1.540       .   A
C263       H268 1.140       .   S
C264       C265 1.540       .   A
C264       H269 1.140       .   S
C265       C266 1.540       .   A
C266       H270 1.140       .   S
C251       C252 1.540       .   A
C251       C256 1.540       .   A
C251       H257 1.140       .   S
C252       C253 1.540       .   A
C253       C254 1.540       .   A
C253       H258 1.140       .   S
C254       C255 1.540       .   A
C254       H259 1.140       .   S
C255       C256 1.540       .   A
C256       H260 1.140       .   S
C241       C242 1.540       .   A
C241       C246 1.540       .   A
C241       H247 1.140       .   S
C242       C243 1.540       .   A
C243       C244 1.540       .   A
C243       H248 1.140       .   S
C244       C245 1.540       .   A
C244       H249 1.140       .   S
C245       C246 1.540       .   A
C246       H250 1.140       .   S
C231       C232 1.540       .   A
C231       C236 1.540       .   A
C231       H237 1.140       .   S
C232       C233 1.540       .   A
C233       C234 1.540       .   A
C233       H238 1.140       .   S
C234       C235 1.540       .   A
C234       H239 1.140       .   S
C235       C236 1.540       .   A
C236       H240 1.140       .   S
C221       C222 1.540       .   A
C221       C226 1.540       .   A
C221       H227 1.140       .   S
C222       C223 1.540       .   A
C223       C224 1.540       .   A
C223       H228 1.140       .   S
C224       C225 1.540       .   A
C224       H229 1.140       .   S
C225       C226 1.540       .   A
C226       H230 1.140       .   S
C211       C212 1.540       .   A
C211       C216 1.540       .   A
C211       H217 1.140       .   S
C212       C213 1.540       .   A
C213       C214 1.540       .   A
C213       H218 1.140       .   S
C214       C215 1.540       .   A
C214       H219 1.140       .   S
C215       C216 1.540       .   A
C216       H220 1.140       .   S
C201       C202 1.540       .   A
C201       C206 1.540       .   A
C201       H207 1.140       .   S
C202       C203 1.540       .   A
C203       C204 1.540       .   A
C203       H208 1.140       .   S
C204       C205 1.540       .   A
C204       H209 1.140       .   S
C205       C206 1.540       .   A
C206       H210 1.140       .   S
C191       C192 1.540       .   A
C191       C196 1.540       .   A
C191       H197 1.140       .   S
C192       C193 1.540       .   A
C193       C194 1.540       .   A
C193       H198 1.140       .   S
C194       C195 1.540       .   A
C194       H199 1.140       .   S
C195       C196 1.540       .   A
C196       H200 1.140       .   S
C181       C182 1.540       .   A
C181       C186 1.540       .   A
C181       H187 1.140       .   S
C182       C183 1.540       .   A
C183       C184 1.540       .   A
C183       H188 1.140       .   S
C184       C185 1.540       .   A
C184       H189 1.140       .   S
C185       C186 1.540       .   A
C186       H190 1.140       .   S
C171       C172 1.540       .   A
C171       C176 1.540       .   A
C171       H177 1.140       .   S
C172       C173 1.540       .   A
C173       C174 1.540       .   A
C173       H178 1.140       .   S
C174       C175 1.540       .   A
C174       H179 1.140       .   S
C175       C176 1.540       .   A
C176       H180 1.140       .   S
C161       C162 1.540       .   A
C161       C166 1.540       .   A
C161       H167 1.140       .   S
C162       C163 1.540       .   A
C163       C164 1.540       .   A
C163       H168 1.140       .   S
C164       C165 1.540       .   A
C164       H169 1.140       .   S
C165       C166 1.540       .   A
C166       H170 1.140       .   S
C151       C152 1.540       .   A
C151       C156 1.540       .   A
C151       H157 1.140       .   S
C152       C153 1.540       .   A
C153       C154 1.540       .   A
C153       H158 1.140       .   S
C154       C155 1.540       .   A
C154       H159 1.140       .   S
C155       C156 1.540       .   A
C156       H160 1.140       .   S
C141       C142 1.540       .   A
C141       C146 1.540       .   A
C141       H147 1.140       .   S
C142       C143 1.540       .   A
C143       C144 1.540       .   A
C143       H148 1.140       .   S
C144       C145 1.540       .   A
C144       H149 1.140       .   S
C145       C146 1.540       .   A
C146       H150 1.140       .   S
