data_nfa_v1-4c_Cu_1_Ch_1-1B_4H_Ch
_audit_creation_date              2024-08-05
_audit_creation_method            'tobacco_3.0'
_symmetry_space_group_name_H-M    'P1'
_symmetry_Int_Tables_number       1
_symmetry_cell_setting            triclinic
loop_
_symmetry_equiv_pos_as_xyz
  x,y,z
_cell_length_a                    31.944618277187207
_cell_length_b                    26.57030966375116
_cell_length_c                    26.25839785004404
_cell_angle_alpha                 90.03032544474523
_cell_angle_beta                  90.01138496939093
_cell_angle_gamma                 90.01299645342199
loop_
_atom_site_label
_atom_site_type_symbol
_atom_site_fract_x
_atom_site_fract_y
_atom_site_fract_z
_atom_site_charge
O1         O    0.0842130436    0.3313612861    0.3216579018         -1.3557
O2         O    0.1934916209    0.3831313640    0.3594485450         -1.3655
O3         O    0.1497772281    0.2963998710    0.3791517445         -1.2517
O4         O    0.1279306272    0.4180990965    0.3019532603         -1.3358
O5         O    0.1002259627    0.4536064464    0.3708468134         -1.3313
O6         O    0.1220678318    0.3319097124    0.4480409951         -1.2439
O7         O    0.1657869564    0.4186387139    0.4283420982         -1.3689
O8         O    0.0565083791    0.3668686360    0.3905514550         -1.3567
Cu9       Cu    0.1413836204    0.3540069445    0.3342676440          1.0456
Cu10      Cu    0.1086163796    0.3959930555    0.4157323560          1.0433
C11        C    0.0542476866    0.3414813332    0.3505339491          0.3063
C12        C    0.1957523134    0.4085186668    0.3994660509          0.2977
C13        C    0.1391408379    0.2962103952    0.4249733108          0.2191
C14        C    0.1108591621    0.4537896048    0.3250266892          0.2819
O15        O    0.1280073130    0.0263619847    0.6276860314         -1.3557
O16        O    0.0183936020    0.0635312987    0.6790569969         -1.3655
O17        O    0.0628532561    0.0836739416    0.5920251440         -1.2517
O18        O    0.0835444138    0.0062178678    0.7147242236         -1.3358
O19        O    0.1111051276    0.0739019401    0.7516219692         -1.3313
O20        O    0.0904186721    0.1513537266    0.6289254298         -1.2439
O21        O    0.0459543159    0.1312153710    0.7159547426         -1.3689
O22        O    0.1555680269    0.0940460570    0.6645837770         -1.3567
Cu23      Cu    0.0706823017    0.0387714188    0.6500052364          1.0456
Cu24      Cu    0.1032793272    0.1188059369    0.6936355375          1.0433
C25        C    0.1579501145    0.0547248903    0.6385601363          0.3063
C26        C    0.0160115144    0.1028524653    0.7050806376          0.2977
C27        C    0.0735880122    0.1289288177    0.5923834460          0.2191
C28        C    0.1003736167    0.0286485380    0.7512573280          0.2819
O29        O    0.9101003767    0.1948170123    0.0036007938         -1.3557
O30        O    0.8364025543    0.0840978399    0.9681213334         -1.3655
O31        O    0.9098838412    0.1217435658    0.9297155076         -1.2517
O32        O    0.8366137373    0.1571685354    0.0420094226         -1.3358
O33        O    0.8005691084    0.2078316966    0.9908409549         -1.3313
O34        O    0.8738392854    0.1724119686    0.8785525084         -1.2439
O35        O    0.8003579253    0.1347610011    0.9169528656         -1.3689
O36        O    0.8740557477    0.2454801735    0.9524323261         -1.3567
Cu37      Cu    0.8765390664    0.1348309396    0.9905290325          1.0456
Cu38      Cu    0.8339192356    0.1947470738    0.9300246269          1.0433
C39        C    0.9029445622    0.2364742474    0.9832465282          0.3063
C40        C    0.8075137398    0.0931037660    0.9373071312          0.2977
C41        C    0.9026670875    0.1418568245    0.8875823971          0.2191
C42        C    0.8077912145    0.1877211889    0.0329712623          0.2819
O43        O    0.5835910973    0.8318365947    0.8214865581         -1.3557
O44        O    0.6929226773    0.8835673654    0.8591047658         -1.3655
O45        O    0.6492236789    0.7968311942    0.8788372973         -1.2517
O46        O    0.6272932853    0.9185790838    0.8017525824         -1.3358
O47        O    0.5996791746    0.9540504502    0.8707189149         -1.3313
O48        O    0.6216048313    0.8323050555    0.9477993376         -1.2439
O49        O    0.6653085665    0.9190387319    0.9280710983         -1.3689
O50        O    0.5559769865    0.8673079612    0.8904528907         -1.3567
Cu51      Cu    0.6407799136    0.8544658819    0.8340034358          1.0456
Cu52      Cu    0.6081197502    0.8964094447    0.9155542207          1.0433
C53        C    0.5536632038    0.8419444450    0.8504244205          0.3063
C54        C    0.6952364600    0.9089308816    0.8991332360          0.2977
C55        C    0.6386449108    0.7966165567    0.9246784889          0.2191
C56        C    0.6102547530    0.9542587699    0.8248791676          0.2819
O57        O    0.3366132639    0.5838138983    0.4680441861         -1.3557
O58        O    0.4101152278    0.6947450130    0.5034468756         -1.3655
O59        O    0.3366877928    0.6569555951    0.5418606349         -1.2517
O60        O    0.4100460550    0.6216060671    0.4296276338         -1.3358
O61        O    0.3739280360    0.6721357991    0.3784006254         -1.3313
O62        O    0.3005698288    0.7074799153    0.4906283301         -1.2439
O63        O    0.3739972088    0.7452747450    0.4522198672         -1.3689
O64        O    0.3004952450    0.6343436303    0.4168171777         -1.3567
Cu65      Cu    0.3766619108    0.6346714931    0.4904217569          1.0456
Cu66      Cu    0.3339485619    0.6944171502    0.4298422964          1.0433
C67        C    0.3077156817    0.5927231926    0.4372106834          0.3063
C68        C    0.4028947911    0.7363654507    0.4830533698          0.2977
C69        C    0.3078131536    0.6874235623    0.5327911702          0.2191
C70        C    0.4027973191    0.6416650810    0.3874728831          0.2819
O71        O    0.6284465974    0.5264588145    0.1271671569         -1.3557
O72        O    0.5188814152    0.5635608168    0.1787407622         -1.3655
O73        O    0.5632117620    0.5837014407    0.0916108668         -1.2517
O74        O    0.5841130149    0.5063167167    0.2143033987         -1.3358
O75        O    0.6116850533    0.5740397032    0.2511153508         -1.3313
O76        O    0.5907885084    0.6514201448    0.1284253516         -1.2439
O77        O    0.5464534536    0.6312838032    0.2155527144         -1.3689
O78        O    0.6560186358    0.5941818010    0.1639791090         -1.3567
Cu79      Cu    0.5711448175    0.5388310394    0.1495955165          1.0456
Cu80      Cu    0.6037552335    0.6189115783    0.1931243547          1.0433
C81        C    0.6583879045    0.5548511022    0.1379684853          0.3063
C82        C    0.5165121465    0.6028915155    0.2047513859          0.2977
C83        C    0.5739212083    0.6289652583    0.0919272305          0.2191
C84        C    0.6009788427    0.5287773594    0.2507926407          0.2819
O85        O    0.1936484779    0.7364413525    0.3590656212         -1.3557
O86        O    0.0843325267    0.7880017543    0.3968533949         -1.3655
O87        O    0.1281341187    0.7013526106    0.4165546484         -1.2517
O88        O    0.1498436945    0.8230968151    0.3393629402         -1.3358
O89        O    0.1221507038    0.7875376762    0.2704683924         -1.3313
O90        O    0.1004459465    0.6657960884    0.3476560233         -1.2439
O91        O    0.0566395359    0.7524426153    0.3279588472         -1.3689
O92        O    0.1659554872    0.7008822136    0.2901710735         -1.3567
Cu93      Cu    0.1415145799    0.7654674075    0.3842479138          1.0456
Cu94      Cu    0.1087734340    0.7234165604    0.3027765546          1.0433
C95        C    0.1959197889    0.7110581345    0.3190462254          0.3063
C96        C    0.0543682250    0.7778258334    0.3679782430          0.2977
C97        C    0.1110941202    0.6656261427    0.3934867340          0.2191
C98        C    0.1391938937    0.8232578252    0.2935377344          0.2819
O99        O    0.0179339966    0.0555178810    0.0392099161         -1.3557
O100       O    0.1274976799    0.0929143550    0.0906675545         -1.3655
O101       O    0.0830516557    0.1129236105    0.0035780765         -1.2517
O102       O    0.0623832591    0.0355071754    0.1263057452         -1.3358
O103       O    0.0900161823    0.9678513221    0.0894766807         -1.3313
O104       O    0.1106797894    0.0452636840    0.9667516704         -1.2439
O105       O    0.1551306031    0.0252585018    0.0538384900         -1.3689
O106       O    0.0455669198    0.9878620277    0.0023808516         -1.3567
Cu107     Cu    0.0701972443    0.0803914757    0.0683004705          1.0456
Cu108     Cu    0.1028673554    0.0003849070    0.0247479355          1.0433
C109       C    0.0155961173    0.0161755460    0.0132068646          0.3063
C110       C    0.1574684824    0.0646008367    0.0798415415          0.2977
C111       C    0.0999081351    0.0905081389    0.9670717344          0.2191
C112       C    0.0731564646    0.9902682439    0.1259766717          0.2819
O113       O    0.9096960205    0.9247413709    0.7142773190         -1.3557
O114       O    0.8361294742    0.0355110480    0.7498346640         -1.3655
O115       O    0.9095473226    0.9977147986    0.7882638093         -1.2517
O116       O    0.8362728243    0.9625403823    0.6758453688         -1.3358
O117       O    0.8001431566    0.9118561633    0.7269061844         -1.3313
O118       O    0.8734177233    0.9470253453    0.8393191492         -1.2439
O119       O    0.7999998065    0.9848268290    0.8008954795         -1.3689
O120       O    0.8735663528    0.8740571519    0.7653381346         -1.3567
Cu121     Cu    0.8762081122    0.9847546179    0.7273978491          1.0456
Cu122     Cu    0.8334877148    0.9248135821    0.7877749494          1.0433
C123       C    0.9024783293    0.8830661583    0.7345662740          0.3063
C124       C    0.8072174977    0.0265020416    0.7806065246          0.2977
C125       C    0.9022886942    0.9775540764    0.8303614499          0.2191
C126       C    0.8074071328    0.9320141235    0.6848113486          0.2819
O127       O    0.4104010931    0.4255091141    0.2139777304         -1.3557
O128       O    0.3368087707    0.5362765495    0.2494630991         -1.3655
O129       O    0.4102773726    0.4985882749    0.2878573697         -1.2517
O130       O    0.3369271397    0.4632001428    0.1755806575         -1.3358
O131       O    0.3008652412    0.4125631809    0.2267601747         -1.3313
O132       O    0.3742155404    0.4479460708    0.3390314188         -1.2439
O133       O    0.3007468721    0.4856395875    0.3006426164         -1.3689
O134       O    0.3743391945    0.3748721522    0.2651572476         -1.3567
Cu135     Cu    0.3768941120    0.4855169286    0.2270514376          1.0456
Cu136     Cu    0.3342538532    0.4256317731    0.2875689091          1.0433
C137       C    0.4032210884    0.3838578625    0.2343366495          0.3063
C138       C    0.3079268768    0.5272908391    0.2802836972          0.2977
C139       C    0.4030637909    0.4784826823    0.3299934684          0.2191
C140       C    0.3080841743    0.4326660194    0.1846268783          0.2819
O141       O    0.5187557335    0.5566166353    0.5386365758         -1.3557
O142       O    0.6284036031    0.5936520195    0.5900958489         -1.3655
O143       O    0.5840118297    0.6137892046    0.5029957078         -1.2517
O144       O    0.5631507414    0.5364779908    0.6257430688         -1.3358
O145       O    0.5906260177    0.4687174858    0.5889363120         -1.3313
O146       O    0.6114823066    0.5460246435    0.4661916101         -1.2439
O147       O    0.6558788794    0.5258915145    0.5532890921         -1.3689
O148       O    0.5462310098    0.4888561304    0.5018298190         -1.3567
Cu149     Cu    0.5710754637    0.5813192249    0.5677259119          1.0456
Cu150     Cu    0.6035591492    0.5011889249    0.5241997561          1.0433
C151       C    0.5163266169    0.5172752141    0.5126444373          0.3063
C152       C    0.6583079960    0.5652329357    0.5792812306          0.2977
C153       C    0.6008178915    0.5913059193    0.4664976159          0.2191
C154       C    0.5738167214    0.4912022305    0.6254280521          0.2819
O155       O    0.6933704468    0.2364506077    0.8587394250         -1.3557
O156       O    0.5841480430    0.2882911537    0.8965350804         -1.3655
O157       O    0.6277986024    0.2015322070    0.9162376771         -1.2517
O158       O    0.6497167071    0.3232158813    0.8390354007         -1.3358
O159       O    0.6219564988    0.2877225527    0.7701461613         -1.3313
O160       O    0.6000432170    0.1660414826    0.8473443596         -1.2439
O161       O    0.5563878347    0.2527978250    0.8276458410         -1.3689
O162       O    0.6656102386    0.2009572791    0.7898501856         -1.3567
Cu163     Cu    0.6412894581    0.2656107371    0.8839251742          1.0456
Cu164     Cu    0.6084688234    0.2236376957    0.8024600918          1.0433
C165       C    0.6955943535    0.2110589897    0.8187215213          0.3063
C166       C    0.5541639280    0.2781894431    0.8676637447          0.2977
C167       C    0.6106942548    0.1658475500    0.8931739740          0.2191
C168       C    0.6390640267    0.3234008827    0.7932112920          0.2819
O169       O    0.5522323817    0.9265777182    0.5029637041         -1.3557
O170       O    0.6260602874    0.0371309568    0.4675088091         -1.3655
O171       O    0.5524720028    0.9996548866    0.4291606719         -1.2517
O172       O    0.6258260265    0.9640565270    0.5413146403         -1.3358
O173       O    0.6617268899    0.9133143322    0.4900399045         -1.3313
O174       O    0.5883727915    0.9489074500    0.3778913988         -1.2439
O175       O    0.6619611508    0.9863887620    0.4162340733         -1.3689
O176       O    0.5881332451    0.8758355234    0.4516889684         -1.3567
Cu177     Cu    0.5858718563    0.9864880325    0.4899139244          1.0456
Cu178     Cu    0.6283216762    0.9264784477    0.4292838531          1.0433
C179       C    0.5592971306    0.8849054328    0.4825526819          0.3063
C180       C    0.6548964019    0.0280610474    0.4366450955          0.2977
C181       C    0.5596045027    0.9795276813    0.3869950593          0.2191
C182       C    0.6545890298    0.9334387989    0.5322027182          0.2819
O183       O    0.3339781783    0.0946638410    0.1273959944         -1.3557
O184       O    0.4437505768    0.0579919549    0.1786451074         -1.3655
O185       O    0.3993163481    0.0377334195    0.0915784365         -1.2517
O186       O    0.3784156502    0.1149238588    0.2144690070         -1.3358
O187       O    0.3511154823    0.0470513054    0.2512128217         -1.3313
O188       O    0.3720114643    0.9698651260    0.1283248030         -1.2439
O189       O    0.4164504089    0.9901194015    0.2153889220         -1.3689
O190       O    0.3066780104    0.0267912876    0.1641398090         -1.3567
Cu191     Cu    0.3913587622    0.0825203356    0.1496683161          1.0456
Cu192     Cu    0.3590698250    0.0022629069    0.1931166003          1.0433
C193       C    0.3041422566    0.0661333497    0.1382110974          0.3063
C194       C    0.4462863306    0.0186498928    0.2045738190          0.2977
C195       C    0.3887427340    0.9924234416    0.0918315585          0.2191
C196       C    0.3616858533    0.0923598009    0.2509533578          0.2819
O197       O    0.3787779364    0.7882436944    0.8211931183         -1.3557
O198       O    0.2693914106    0.7366201797    0.8586172741         -1.3655
O199       O    0.3130583513    0.8234167880    0.8782965670         -1.2517
O200       O    0.3351078083    0.7014407639    0.8015123851         -1.3358
O201       O    0.3626191428    0.6661760408    0.8706233163         -1.3313
O202       O    0.3405744292    0.7881495576    0.9474032237         -1.2439
O203       O    0.2969027450    0.7013554566    0.9277282053         -1.3689
O204       O    0.4062892708    0.7529789713    0.8903040496         -1.3567
Cu205     Cu    0.3215710241    0.7656491817    0.8335997679          1.0456
Cu206     Cu    0.3541096573    0.7239499693    0.9153215557          1.0433
C207       C    0.4086625412    0.7782233553    0.8502318925          0.3063
C208       C    0.2670181402    0.7113757957    0.8986894312          0.2977
C209       C    0.3235681876    0.8237683617    0.9241657616          0.2191
C210       C    0.3521124938    0.6658307893    0.8247555621          0.2819
O211       O    0.8797896022    0.2876685426    0.3208768044         -1.3557
O212       O    0.7703091889    0.2362056309    0.3581209181         -1.3655
O213       O    0.8140396447    0.3229416178    0.3778652492         -1.2517
O214       O    0.8360559545    0.2009262380    0.3011310282         -1.3358
O215       O    0.8634531232    0.1656291399    0.3702920987         -1.3313
O216       O    0.8414415591    0.2876420052    0.4470220535         -1.2439
O217       O    0.7977063576    0.2009085329    0.4272819886         -1.3689
O218       O    0.9071867709    0.2523714446    0.3900378749         -1.3567
Cu219     Cu    0.8225461621    0.2651572904    0.3331888523          1.0456
Cu220     Cu    0.8549497977    0.2234197851    0.4149699407          1.0433
C221       C    0.9096309663    0.2776083355    0.3499671951          0.3063
C222       C    0.7678649935    0.2109687400    0.3981915979          0.2977
C223       C    0.8244972935    0.3232827985    0.4237521559          0.2191
C224       C    0.8529986663    0.1652942770    0.3244066371          0.2819
O225       O    0.0529006234    0.4257043696    0.0029555220         -1.3557
O226       O    0.1265669775    0.5363836983    0.9674065207         -1.3655
O227       O    0.0530365262    0.4987162870    0.9290860092         -1.2517
O228       O    0.1264364307    0.4633745336    0.0412788304         -1.3358
O229       O    0.1624154028    0.4126637232    0.9900534237         -1.3313
O230       O    0.0890154311    0.4480002395    0.8778660700         -1.2439
O231       O    0.1625459496    0.4856728879    0.9161811141         -1.3689
O232       O    0.0888795955    0.3749935592    0.9517301153         -1.3567
Cu233     Cu    0.0864521897    0.4856748673    0.9898541848          1.0456
Cu234     Cu    0.1289943833    0.4257023903    0.9292824512          1.0433
C235       C    0.0600282477    0.3840291836    0.9825830404          0.3063
C236       C    0.1554183253    0.5273480740    0.9365535956          0.2977
C237       C    0.0602013223    0.4785669411    0.8869393369          0.2191
C238       C    0.1552452507    0.4328103165    0.0321972992          0.2819
O239       O    0.8342111153    0.5935293001    0.6268091769         -1.3557
O240       O    0.9438574853    0.5566060733    0.6782720902         -1.3655
O241       O    0.8994965039    0.5364257660    0.5911316281         -1.2517
O242       O    0.8785753346    0.6137110842    0.7139559862         -1.3358
O243       O    0.8511144665    0.5459187764    0.7506743448         -1.3313
O244       O    0.8720309239    0.4686377306    0.6278525284         -1.2439
O245       O    0.9163966172    0.4888137655    0.7149904488         -1.3689
O246       O    0.8067502472    0.5257369924    0.6635275356         -1.3567
Cu247     Cu    0.8915433465    0.5812527942    0.6491907279          1.0456
Cu248     Cu    0.8590643860    0.5010902714    0.6926088978          1.0433
C249       C    0.8043134240    0.5650759916    0.6375800278          0.3063
C250       C    0.9462943084    0.5172670741    0.7042195979          0.2977
C251       C    0.8888455700    0.4911419346    0.5913817725          0.2191
C252       C    0.8617621625    0.5912011311    0.7504178532          0.2819
O253       O    0.3790256251    0.3315216098    0.8974665210         -1.3557
O254       O    0.2696316513    0.3830471078    0.8599676053         -1.3655
O255       O    0.3133611458    0.2963395647    0.8402206225         -1.2517
O256       O    0.3352929388    0.4182354686    0.9172149491         -1.3358
O257       O    0.3628254159    0.4536379734    0.8481941516         -1.3313
O258       O    0.3408983622    0.3317445773    0.7712041098         -1.2439
O259       O    0.2971641284    0.4184496126    0.7909468078         -1.3689
O260       O    0.4065581022    0.3669241146    0.8284457235         -1.3567
Cu261     Cu    0.3218130597    0.3540545384    0.8850142633          1.0456
Cu262     Cu    0.3543766938    0.3959166839    0.8033990656          1.0433
C263       C    0.4089219004    0.3416252943    0.8684838368          0.3063
C264       C    0.2672678531    0.4083459281    0.8199294920          0.2977
C265       C    0.3238988972    0.2960686914    0.7943655185          0.2191
C266       C    0.3522908563    0.4539025310    0.8940478103          0.2819
O267       O    0.3342594649    0.0263296798    0.5906418292         -1.3557
O268       O    0.4439650986    0.0632139310    0.5393464276         -1.3655
O269       O    0.3996125244    0.0832680931    0.6264958093         -1.2517
O270       O    0.3786152764    0.0062740501    0.5034860998         -1.3358
O271       O    0.3512513711    0.0741820556    0.4668947224         -1.3313
O272       O    0.3722439022    0.1511718380    0.5899018771         -1.2439
O273       O    0.4166011933    0.1311219364    0.5027550502         -1.3689
O274       O    0.3068955596    0.0942376852    0.5540504518         -1.3567
Cu275     Cu    0.3916124815    0.0385761374    0.5683324517          1.0456
Cu276     Cu    0.3592481768    0.1188754788    0.5250644278          1.0433
C277       C    0.3044015185    0.0548465837    0.5799097727          0.3063
C278       C    0.4464591397    0.1026050325    0.5134871068          0.2977
C279       C    0.3890212795    0.1285668351    0.6263364637          0.2191
C280       C    0.3618393788    0.0288847811    0.4670604157          0.2819
O281       O    0.6261102527    0.0833345578    0.2503179366         -1.3557
O282       O    0.5524701409    0.1940187853    0.2147965207         -1.3655
O283       O    0.6259761131    0.1563657496    0.1764679395         -1.2517
O284       O    0.5525989187    0.1209903345    0.2886493047         -1.3358
O285       O    0.5886117340    0.1716916275    0.3398864640         -1.3313
O286       O    0.6619888779    0.2070616387    0.2277103976         -1.2439
O287       O    0.5884829561    0.2447200783    0.2660336800         -1.3689
O288       O    0.6621230679    0.1340358509    0.3015550960         -1.3567
Cu289     Cu    0.5860021286    0.1340530464    0.2278800733          1.0456
Cu290     Cu    0.6285910802    0.1940015898    0.2884715434          1.0433
C291       C    0.6549756013    0.0923660379    0.2811740210          0.3063
C292       C    0.5596176075    0.2356885983    0.2351775957          0.2977
C293       C    0.6548009523    0.1869233187    0.1855500965          0.2191
C294       C    0.5597922565    0.1411313174    0.3308015202          0.2819
O295       O    0.8794053194    0.8308603575    0.3969148782         -1.3557
O296       O    0.7700427062    0.8825096442    0.3594551308         -1.3655
O297       O    0.8137167088    0.7957747151    0.3396494378         -1.2517
O298       O    0.8357281289    0.9176016043    0.4167220207         -1.3358
O299       O    0.8632806516    0.9530228681    0.3477229216         -1.3313
O300       O    0.8412739725    0.8311984796    0.2706546248         -1.2439
O301       O    0.7975952288    0.9179309080    0.2904560317         -1.3689
O302       O    0.9069578420    0.8662816212    0.3279157791         -1.3567
Cu303     Cu    0.8222066055    0.8534534723    0.3844802252          1.0456
Cu304     Cu    0.8547939427    0.8953377932    0.3028906846          1.0433
C305       C    0.9093069933    0.8409551698    0.3679372677          0.3063
C306       C    0.7676935549    0.9078360956    0.3194336422          0.2977
C307       C    0.8242527431    0.7955233874    0.2937936447          0.2191
C308       C    0.8527478050    0.9532678780    0.3935772652          0.2819
O309       O    0.1262658610    0.5830988666    0.7501415864         -1.3557
O310       O    0.0525250682    0.6936548467    0.7145205367         -1.3655
O311       O    0.1260890561    0.6560984342    0.6762597164         -1.2517
O312       O    0.0526965072    0.6206580131    0.7884051886         -1.3358
O313       O    0.0886313008    0.6714362347    0.8396454363         -1.3313
O314       O    0.1620238025    0.7068712540    0.7275052651         -1.2439
O315       O    0.0884598619    0.7444330683    0.7657607844         -1.3689
O316       O    0.1622006546    0.6338770883    0.8013818341         -1.3567
Cu317     Cu    0.0861145137    0.6337462081    0.7276536218          1.0456
Cu318     Cu    0.1286112092    0.6937857268    0.7882487490          1.0433
C319       C    0.1551070430    0.5921877220    0.7810139059          0.3063
C320       C    0.0596186799    0.7353442129    0.7348884648          0.2977
C321       C    0.1548771560    0.6867040531    0.6853487133          0.2191
C322       C    0.0598485669    0.6408278818    0.8305536574          0.2819
O323       O    0.8343981308    0.5259699312    0.0896362020         -1.3557
O324       O    0.9441018050    0.5628071147    0.0383000229         -1.3655
O325       O    0.8997607140    0.5829208933    0.1254440122         -1.2517
O326       O    0.8787424583    0.5058546808    0.0024858653         -1.3358
O327       O    0.8513812678    0.5737441924    0.9658563825         -1.3313
O328       O    0.8723948059    0.6508061435    0.0888119780         -1.2439
O329       O    0.9167406146    0.6306966263    0.0016705401         -1.3689
O330       O    0.8070369403    0.5938594429    0.0530067191         -1.3567
Cu331     Cu    0.8917499199    0.5381945417    0.0673099117          1.0456
Cu332     Cu    0.8593888255    0.6184720158    0.0239968304          1.0433
C333       C    0.8045418309    0.5544845285    0.0788911044          0.3063
C334       C    0.9465969145    0.6021820291    0.0124156377          0.2977
C335       C    0.8891739230    0.6282210297    0.1252580169          0.2191
C336       C    0.8619648223    0.5284455279    0.9660487251          0.2819
C807       C    0.0296294971    0.5783537732    0.8990984165          0.3708
C808       C    0.0319119519    0.6312948262    0.8754148847          0.3708
C809       C    0.0055051955    0.6744460084    0.8978011157          0.3708
C810       C    0.9768159842    0.6646561377    0.9438708786          0.3708
C811       C    0.9745335294    0.6117150847    0.9675544105          0.3708
C812       C    0.0009402858    0.5685639025    0.9451681794          0.3708
H813       H    0.0491773558    0.5464106902    0.8825267910          0.3708
H814       H    0.0071938247    0.7136341533    0.8802713580          0.3708
H815       H    0.9572681255    0.6965992207    0.9604425041          0.3708
H816       H    0.9992516566    0.5293757576    0.9626979371          0.3708
C797       C    0.8531657210    0.6972868778    0.2661136577          0.3708
C798       C    0.8415776095    0.7508770796    0.2488182264          0.3708
C799       C    0.8451252216    0.7654624104    0.1922303995          0.3708
C800       C    0.8602609452    0.7264575393    0.1529380039          0.3708
C801       C    0.8718490567    0.6728673375    0.1702334352          0.3708
C802       C    0.8683014446    0.6582820067    0.2268212621          0.3708
H803       H    0.8505395666    0.6864899446    0.3080033477          0.3708
H804       H    0.8365478549    0.8051301489    0.1794265919          0.3708
H805       H    0.8628870996    0.7372544725    0.1110483138          0.3708
H806       H    0.8768788113    0.6186142682    0.2396250697          0.3708
C787       C    0.7272566377    0.0532591493    0.3134335606          0.3708
C788       C    0.6831845409    0.0461853379    0.2907489229          0.3708
C789       C    0.6672624813    0.9930272554    0.2776191938          0.3708
C790       C    0.6954125185    0.9469429842    0.2871741025          0.3708
C791       C    0.7394846153    0.9540167956    0.3098587403          0.3708
C792       C    0.7554066749    0.0071748781    0.3229884694          0.3708
H793       H    0.7390430975    0.0926099376    0.3231529704          0.3708
H794       H    0.6346399679    0.9877895630    0.2608276901          0.3708
H795       H    0.6836260587    0.9075921959    0.2774546927          0.3708
H796       H    0.7880291883    0.0124125705    0.3397799731          0.3708
C777       C    0.5207474896    0.1263437842    0.4765525615          0.3708
C778       C    0.4745006866    0.1121374327    0.4682859636          0.3708
C779       C    0.4568788951    0.1076618234    0.4138777156          0.3708
C780       C    0.4855039066    0.1173925657    0.3677360654          0.3708
C781       C    0.5317507097    0.1315989172    0.3760026633          0.3708
C782       C    0.5493725011    0.1360745265    0.4304109113          0.3708
H783       H    0.5337921924    0.1296568976    0.5168287971          0.3708
H784       H    0.4226466182    0.0971461908    0.4077570874          0.3708
H785       H    0.4724592039    0.1140794523    0.3274598299          0.3708
H786       H    0.5836047780    0.1465901591    0.4365315396          0.3708
C767       C    0.1953992403    0.4471223241    0.7870491954          0.3708
C768       C    0.2392990395    0.4541893636    0.8102253648          0.3708
C769       C    0.2550872472    0.5073338645    0.8236478684          0.3708
C770       C    0.2269756557    0.5534113260    0.8138942025          0.3708
C771       C    0.1830758565    0.5463442866    0.7907180332          0.3708
C772       C    0.1672876488    0.4931997856    0.7772955296          0.3708
H773       H    0.1837118657    0.4077815896    0.7771130564          0.3708
H774       H    0.2875822222    0.5125665439    0.8408032113          0.3708
H775       H    0.2386630303    0.5927520605    0.8238303415          0.3708
H776       H    0.1347926738    0.4879671062    0.7601401866          0.3708
C757       C    0.3289904500    0.1956487105    0.7554858627          0.3708
C758       C    0.3412698573    0.2513886912    0.7495448917          0.3708
C759       C    0.3687394956    0.2680577440    0.7044100201          0.3708
C760       C    0.3839297267    0.2289868160    0.6652161196          0.3708
C761       C    0.3716503195    0.1732468352    0.6711570906          0.3708
C762       C    0.3441806811    0.1565777825    0.7162919621          0.3708
H763       H    0.3086557826    0.1833092818    0.7888973910          0.3708
H764       H    0.3778295386    0.3093168071    0.7000111061          0.3708
H765       H    0.4042643941    0.2413262446    0.6318045913          0.3708
H766       H    0.3350906381    0.1153187193    0.7206908762          0.3708
C747       C    0.9028217362    0.5772115829    0.8328045467          0.3708
C748       C    0.8618106245    0.5761943981    0.8019816141          0.3708
C749       C    0.8208523807    0.5588061448    0.8274103566          0.3708
C750       C    0.8209052486    0.5424350762    0.8836620317          0.3708
C751       C    0.8619163603    0.5434522609    0.9144849643          0.3708
C752       C    0.9028746041    0.5608405142    0.8890562217          0.3708
H753       H    0.9331414751    0.5900834068    0.8139806723          0.3708
H754       H    0.7904948054    0.5580526780    0.8045961363          0.3708
H755       H    0.7905855097    0.5295632522    0.9024859061          0.3708
H756       H    0.9332321794    0.5615939811    0.9118704421          0.3708
C737       C    0.0419383619    0.5313673473    0.8045033792          0.3708
C738       C    0.0319634809    0.4881608035    0.8416426441          0.3708
C739       C    0.9932729343    0.4547104638    0.8327187322          0.3708
C740       C    0.9645572688    0.4644666678    0.7866555555          0.3708
C741       C    0.9745321499    0.5076732117    0.7495162907          0.3708
C742       C    0.0132226964    0.5411235514    0.7584402026          0.3708
H743       H    0.0705794159    0.5561292871    0.8111093919          0.3708
H744       H    0.9858883384    0.4227280750    0.8602088016          0.3708
H745       H    0.9359162149    0.4397047280    0.7800495429          0.3708
H746       H    0.0206072924    0.5731059402    0.7309501332          0.3708
C727       C    0.8521967880    0.1022820349    0.3983290850          0.3708
C728       C    0.8529384934    0.1144364610    0.3409982837          0.3708
C729       C    0.8536149411    0.0714355036    0.3016611499          0.3708
C730       C    0.8535496834    0.0162801201    0.3196548173          0.3708
C731       C    0.8528079780    0.0041256941    0.3769856186          0.3708
C732       C    0.8521315303    0.0471266515    0.4163227524          0.3708
H733       H    0.8516960409    0.1341139125    0.4274487815          0.3708
H734       H    0.8541639702    0.0804308057    0.2592238496          0.3708
H735       H    0.8540504304    0.9844482426    0.2905351209          0.3708
H736       H    0.8515825012    0.0381313493    0.4587600527          0.3708
C717       C    0.8182114937    0.3742357616    0.5192740554          0.3708
C718       C    0.8416400724    0.3680015107    0.4684097227          0.3708
C719       C    0.8801000105    0.4009781156    0.4567026315          0.3708
C720       C    0.8951313698    0.4401889714    0.4958598729          0.3708
C721       C    0.8717027911    0.4464232223    0.5467242057          0.3708
C722       C    0.8332428530    0.4134466174    0.5584312969          0.3708
H723       H    0.7897411499    0.3498245086    0.5279403437          0.3708
H724       H    0.8974429783    0.3963645889    0.4190526627          0.3708
H725       H    0.9236017136    0.4646002245    0.4871935846          0.3708
H726       H    0.8158998852    0.4180601441    0.5960812657          0.3708
C707       C    0.3938652761    0.5334711890    0.8719092634          0.3708
C708       C    0.3522480850    0.5047228365    0.8774315589          0.3708
C709       C    0.3105844839    0.5311183076    0.8649239817          0.3708
C710       C    0.3105380739    0.5862621313    0.8468941090          0.3708
C711       C    0.3521552650    0.6150104838    0.8413718135          0.3708
C712       C    0.3938188661    0.5886150127    0.8538793907          0.3708
H713       H    0.4247071626    0.5139316844    0.8811681193          0.3708
H714       H    0.2797782685    0.5098397146    0.8690111693          0.3708
H715       H    0.2796961874    0.6058016359    0.8376352531          0.3708
H716       H    0.4246250816    0.6098936057    0.8497922031          0.3708
C697       C    0.2370951864    0.6418897536    0.9615630061          0.3708
C698       C    0.2392444260    0.6655770339    0.9081126411          0.3708
C699       C    0.2133674723    0.6430492151    0.8641711484          0.3708
C700       C    0.1853412790    0.5968341161    0.8736800207          0.3708
C701       C    0.1831920395    0.5731468358    0.9271303857          0.3708
C702       C    0.2090689931    0.5956746545    0.9710718784          0.3708
H703       H    0.2562508534    0.6585661909    0.9940911241          0.3708
H704       H    0.2149575129    0.6605817428    0.8246059876          0.3708
H705       H    0.1661856120    0.5801576788    0.8411519028          0.3708
H706       H    0.2074789526    0.5781421268    0.0106370393          0.3708
C687       C    0.3776787456    0.0244139646    0.3174947803          0.3708
C688       C    0.3617226836    0.0771323133    0.3027968635          0.3708
C689       C    0.3458065541    0.1133406397    0.3443089700          0.3708
C690       C    0.3458464865    0.0968306174    0.4005189933          0.3708
C691       C    0.3618025484    0.0441122687    0.4152169100          0.3708
C692       C    0.3777186779    0.0079039423    0.3737048035          0.3708
H693       H    0.3894608155    0.9976103983    0.2867650391          0.3708
H694       H    0.3339954301    0.1523637199    0.3334309380          0.3708
H695       H    0.3340644166    0.1236341837    0.4312487345          0.3708
H696       H    0.3895298020    0.9688808621    0.3845828355          0.3708
C677       C    0.3622421890    0.8930075744    0.0641311289          0.3708
C678       C    0.3713264435    0.9473545300    0.0470270084          0.3708
C679       C    0.3652397153    0.9624428572    0.9908945396          0.3708
C680       C    0.3500687326    0.9231842289    0.9518661912          0.3708
C681       C    0.3409844781    0.8688372732    0.9689703117          0.3708
C682       C    0.3470712063    0.8537489460    0.0251027805          0.3708
H683       H    0.3667479489    0.8818382932    0.1056837357          0.3708
H684       H    0.3719636555    0.0026707581    0.9782323539          0.3708
H685       H    0.3455629727    0.9343535100    0.9103135844          0.3708
H686       H    0.3403472661    0.8135210451    0.0377649662          0.3708
C667       C    0.7112977024    0.0752013169    0.3795931752          0.3708
C668       C    0.6830313276    0.0736143669    0.4270682186          0.3708
C669       C    0.6831143229    0.1179279437    0.4648933901          0.3708
C670       C    0.7114636930    0.1638284705    0.4552435182          0.3708
C671       C    0.7397300677    0.1654154205    0.4077684748          0.3708
C672       C    0.7396470725    0.1211018437    0.3699433033          0.3708
H673       H    0.7112362643    0.0423977601    0.3515927236          0.3708
H674       H    0.6621916553    0.1167546913    0.5000354456          0.3708
H675       H    0.7115251310    0.1966320273    0.4832439698          0.3708
H676       H    0.7605697400    0.1222750961    0.3348012479          0.3708
C657       C    0.5488059643    0.9832503551    0.2874432476          0.3708
C658       C    0.5315850201    0.9892011882    0.3418888889          0.3708
C659       C    0.4857244724    0.0050396201    0.3502300805          0.3708
C660       C    0.4570848690    0.0149272189    0.3041256307          0.3708
C661       C    0.4743058133    0.0089763858    0.2496799894          0.3708
C662       C    0.5201663609    0.9931379539    0.2413387979          0.3708
H663       H    0.5827546813    0.9715258016    0.2812685994          0.3708
H664       H    0.4729761394    0.0094449069    0.3905308146          0.3708
H665       H    0.4231361520    0.0266517724    0.3103002789          0.3708
H666       H    0.5329146939    0.9887326672    0.2010380637          0.3708
C647       C    0.5038979077    0.2996678204    0.8171573499          0.3708
C648       C    0.5268508695    0.2901186839    0.8678179647          0.3708
C649       C    0.5044958760    0.3003582322    0.9187344055          0.3708
C650       C    0.4591879207    0.3201469170    0.9189902315          0.3708
C651       C    0.4362349590    0.3296960535    0.8683296168          0.3708
C652       C    0.4585899525    0.3194565052    0.8174131760          0.3708
H653       H    0.5204464094    0.2920878950    0.7794659587          0.3708
H654       H    0.5214848692    0.2932903194    0.9562348238          0.3708
H655       H    0.4426394191    0.3277268424    0.9566816228          0.3708
H656       H    0.4416009593    0.3265244180    0.7799127577          0.3708
C637       C    0.7214201164    0.5653397756    0.5510283192          0.3708
C638       C    0.6855031527    0.5652037031    0.5901400387          0.3708
C639       C    0.6953937464    0.5650183911    0.6475423488          0.3708
C640       C    0.7412013037    0.5649691517    0.6658329393          0.3708
C641       C    0.7771182674    0.5651052242    0.6267212197          0.3708
C642       C    0.7672276737    0.5652905362    0.5693189097          0.3708
H643       H    0.7140985081    0.5654769546    0.5085357001          0.3708
H644       H    0.6688084505    0.5649176649    0.6764945212          0.3708
H645       H    0.7485229120    0.5648319727    0.7083255584          0.3708
H646       H    0.7938129695    0.5653912624    0.5403667372          0.3708
C627       C    0.6332601429    0.4541184577    0.6978830653          0.3708
C628       C    0.5912323204    0.4464132393    0.6702122100          0.3708
C629       C    0.5644125516    0.3995963382    0.6816488168          0.3708
C630       C    0.5796206052    0.3604846556    0.7207562788          0.3708
C631       C    0.6216484277    0.3681898740    0.7484271340          0.3708
C632       C    0.6484681965    0.4150067750    0.7369905273          0.3708
H633       H    0.6531137380    0.4887751247    0.6894170057          0.3708
H634       H    0.5333028580    0.3938914813    0.6611673100          0.3708
H635       H    0.5597670101    0.3258279886    0.7292223383          0.3708
H636       H    0.6795778901    0.4207116319    0.7574720340          0.3708
C617       C    0.2238421923    0.4327153350    0.1662808423          0.3708
C618       C    0.2689505217    0.4327029659    0.1455980364          0.3708
C619       C    0.2767730418    0.4327257989    0.0877292829          0.3708
C620       C    0.2394872326    0.4327610009    0.0505433352          0.3708
C621       C    0.1943789032    0.4327733699    0.0712261411          0.3708
C622       C    0.1865563831    0.4327505370    0.1290948947          0.3708
H623       H    0.2180514956    0.4326984327    0.2091187507          0.3708
H624       H    0.3101623144    0.4327166441    0.0724181121          0.3708
H625       H    0.2452779293    0.4327779032    0.0077054268          0.3708
H626       H    0.1531671105    0.4327596918    0.1444060655          0.3708
C607       C    0.4883345945    0.3671343911    0.2344894496          0.3708
C608       C    0.4435583620    0.3456425354    0.2345535436          0.3708
C609       C    0.4366431155    0.2882813747    0.2348212166          0.3708
C610       C    0.4745041015    0.2524120697    0.2350247956          0.3708
C611       C    0.5192803340    0.2739039255    0.2349607016          0.3708
C612       C    0.5261955805    0.3312650862    0.2346930286          0.3708
H613       H    0.4934536730    0.4095965491    0.2342913021          0.3708
H614       H    0.4034996885    0.2723713641    0.2348686672          0.3708
H615       H    0.4693850229    0.2099499118    0.2352229431          0.3708
H616       H    0.5593390075    0.3471750967    0.2346455780          0.3708
C597       C    0.4458080876    0.5419704694    0.3872321118          0.3708
C598       C    0.4310745937    0.4880763857    0.3751645138          0.3708
C599       C    0.4449617100    0.4439848645    0.4092513549          0.3708
C600       C    0.4735823202    0.4537874270    0.4554057939          0.3708
C601       C    0.4883158142    0.5076815107    0.4674733919          0.3708
C602       C    0.4744286979    0.5517730319    0.4333865508          0.3708
H603       H    0.4355280146    0.5746096474    0.3619989957          0.3708
H604       H    0.4340564696    0.4040912599    0.4003200406          0.3708
H605       H    0.4838623933    0.4211482490    0.4806389100          0.3708
H606       H    0.4853339383    0.5916666365    0.4423178651          0.3708
C587       C    0.9877833961    0.8665979999    0.7346661821          0.3708
C588       C    0.9430750046    0.8449026960    0.7346495109          0.3708
C589       C    0.9363401131    0.7875098818    0.7347106982          0.3708
C590       C    0.9743136131    0.7518123714    0.7347885567          0.3708
C591       C    0.0190220046    0.7735076753    0.7348052279          0.3708
C592       C    0.0257568961    0.8309004895    0.7347440406          0.3708
H593       H    0.9927689651    0.9090835896    0.7346208876          0.3708
H594       H    0.9032469075    0.7714492787    0.7346983601          0.3708
H595       H    0.9693280441    0.7093267817    0.7348338512          0.3708
H596       H    0.0588501017    0.8469610926    0.7347563787          0.3708
C577       C    0.7499852676    0.9827455735    0.6271085225          0.3708
C578       C    0.7682634807    0.9323790476    0.6457213520          0.3708
C579       C    0.7492762944    0.8823599352    0.6271198629          0.3708
C580       C    0.7120108950    0.8827073489    0.5899055444          0.3708
C581       C    0.6937326819    0.9330738749    0.5712927148          0.3708
C582       C    0.7127198681    0.9830929872    0.5898942039          0.3708
H583       H    0.7640407171    0.0197727086    0.6408784559          0.3708
H584       H    0.7628051620    0.8450772287    0.6408964245          0.3708
H585       H    0.6979554454    0.8456802138    0.5761356109          0.3708
H586       H    0.6991910006    0.0203756937    0.5761176423          0.3708
C567       C    0.7754770646    0.1136909858    0.7491156557          0.3708
C568       C    0.7793779126    0.0725318224    0.7901126687          0.3708
C569       C    0.7553067737    0.0776213523    0.8406610360          0.3708
C570       C    0.7273347867    0.1238700455    0.8502123902          0.3708
C571       C    0.7234339386    0.1650292089    0.8092153772          0.3708
C572       C    0.7475050775    0.1599396790    0.7586670100          0.3708
H573       H    0.7932959596    0.1099234117    0.7116967345          0.3708
H574       H    0.7581934058    0.0471556469    0.8710084790          0.3708
H575       H    0.7095158916    0.1276376196    0.8876313115          0.3708
H576       H    0.7446184454    0.1904053844    0.7283195669          0.3708
C557       C    0.2208720691    0.0635857023    0.0516617751          0.3708
C558       C    0.1849843084    0.0648883343    0.0907916009          0.3708
C559       C    0.1949176088    0.0666697253    0.1481561453          0.3708
C560       C    0.2407386699    0.0671484841    0.1663908638          0.3708
C561       C    0.2766264306    0.0658458521    0.1272610380          0.3708
C562       C    0.2666931302    0.0640644612    0.0698964936          0.3708
H563       H    0.2135188467    0.0622670103    0.0091971124          0.3708
H564       H    0.1683539302    0.0676339853    0.1771217187          0.3708
H565       H    0.2480918923    0.0684671761    0.2088555265          0.3708
H566       H    0.2932568088    0.0631002012    0.0409309202          0.3708
C547       C    0.9398645035    0.0023395150    0.9753563786          0.3708
C548       C    0.9875550412    0.0066175882    0.9679566766          0.3708
C549       C    0.0066329435    0.0011428845    0.9143844552          0.3708
C550       C    0.9780203081    0.9913901075    0.8682119359          0.3708
C551       C    0.9303297703    0.9871120342    0.8756116379          0.3708
C552       C    0.9112518680    0.9925867380    0.9291838593          0.3708
H553       H    0.9257419004    0.0063922177    0.0150137373          0.3708
H554       H    0.0419339138    0.0043093259    0.9089055267          0.3708
H555       H    0.9921429111    0.9873374047    0.8285545772          0.3708
H556       H    0.8759508977    0.9894202966    0.9346627878          0.3708
C537       C    0.0187187472    0.8467257497    0.3679305053          0.3708
C538       C    0.0271649544    0.7896644508    0.3679705589          0.3708
C539       C    0.9902838163    0.7523292027    0.3679978090          0.3708
C540       C    0.9449564711    0.7720552535    0.3679850054          0.3708
C541       C    0.9365102640    0.8291165524    0.3679449518          0.3708
C542       C    0.9733914020    0.8664518005    0.3679177017          0.3708
H543       H    0.0460203688    0.8743635307    0.3679103331          0.3708
H544       H    0.9965345017    0.7100914505    0.3680274575          0.3708
H545       H    0.9176548495    0.7444174725    0.3680051776          0.3708
H546       H    0.9671407166    0.9086895527    0.3678880532          0.3708
C527       C    0.2323771386    0.5663288215    0.2957185360          0.3708
C528       C    0.2800225890    0.5730727230    0.2899405927          0.3708
C529       C    0.2995687833    0.6259183883    0.2938870179          0.3708
C530       C    0.2714695271    0.6720201521    0.3036113866          0.3708
C531       C    0.2238240767    0.6652762506    0.3093893299          0.3708
C532       C    0.2042778824    0.6124305853    0.3054429046          0.3708
H533       H    0.2179078779    0.5272093031    0.2927971563          0.3708
H534       H    0.3348363949    0.6309118727    0.2896103297          0.3708
H535       H    0.2859387877    0.7111396706    0.3065327663          0.3708
H536       H    0.1690102708    0.6074371010    0.3097195929          0.3708
C517       C    0.0743264250    0.8755595714    0.2404246348          0.3708
C518       C    0.1215908285    0.8677764463    0.2488723325          0.3708
C519       C    0.1534395827    0.8989799095    0.2182049007          0.3708
C520       C    0.1380239333    0.9379664977    0.1790897713          0.3708
C521       C    0.0907595298    0.9457496227    0.1706420736          0.3708
C522       C    0.0589107756    0.9145461596    0.2013095054          0.3708
H523       H    0.0507500745    0.8524609039    0.2631264999          0.3708
H524       H    0.1884255341    0.8932198555    0.2244568860          0.3708
H525       H    0.1616002838    0.9610651652    0.1563879062          0.3708
H526       H    0.0239248242    0.9203062136    0.1950575201          0.3708
C507       C    0.5592192085    0.5495102150    0.3311468448          0.3708
C508       C    0.6009403654    0.5437255881    0.3023595936          0.3708
C509       C    0.6426195240    0.5542570125    0.3298578771          0.3708
C510       C    0.6425775258    0.5705730637    0.3861434119          0.3708
C511       C    0.6008563689    0.5763576906    0.4149306630          0.3708
C512       C    0.5591772103    0.5658262662    0.3874323795          0.3708
H513       H    0.5283658054    0.5417142255    0.3107909726          0.3708
H514       H    0.6735026950    0.5499755855    0.3085505263          0.3708
H515       H    0.6734309289    0.5783690532    0.4064992841          0.3708
H516       H    0.5282940392    0.5701076932    0.4087397303          0.3708
C497       C    0.7217601327    0.5539153361    0.1658693011          0.3708
C498       C    0.6857179327    0.5547825548    0.1269213207          0.3708
C499       C    0.6954226678    0.5555350341    0.0694818144          0.3708
C500       C    0.7411696028    0.5554202946    0.0509902886          0.3708
C501       C    0.7772118027    0.5545530759    0.0899382690          0.3708
C502       C    0.7675070677    0.5538005966    0.1473777753          0.3708
H503       H    0.7145761080    0.5533583060    0.2083894551          0.3708
H504       H    0.6687446666    0.5561769701    0.0406508399          0.3708
H505       H    0.7483536274    0.5559773247    0.0084701346          0.3708
H506       H    0.7941850688    0.5531586606    0.1762087498          0.3708
C487       C    0.2235074543    0.6868477948    0.5512007155          0.3708
C488       C    0.2686204694    0.6872391748    0.5718868685          0.3708
C489       C    0.2764581699    0.6874551877    0.6297560947          0.3708
C490       C    0.2391828553    0.6872798206    0.6669391680          0.3708
C491       C    0.1940698403    0.6868884407    0.6462530150          0.3708
C492       C    0.1862321398    0.6866724278    0.5883837888          0.3708
H493       H    0.2177055202    0.6866878892    0.5083624571          0.3708
H494       H    0.3098509113    0.6877448925    0.6450697430          0.3708
H495       H    0.2449847894    0.6874397263    0.7097774264          0.3708
H496       H    0.1528393983    0.6863827230    0.5730701405          0.3708
C477       C    0.4363051031    0.8320549193    0.4831108769          0.3708
C478       C    0.4432622380    0.7747036231    0.4829241423          0.3708
C479       C    0.4880530958    0.7532841455    0.4826162912          0.3708
C480       C    0.5258868185    0.7892159642    0.4824951749          0.3708
C481       C    0.5189296836    0.8465672604    0.4826819095          0.3708
C482       C    0.4741388259    0.8679867379    0.4829897605          0.3708
H483       H    0.4031482344    0.8479108961    0.4833387666          0.3708
H484       H    0.4932041598    0.7108322421    0.4824780612          0.3708
H485       H    0.5590436873    0.7733599873    0.4822672851          0.3708
H486       H    0.4689877618    0.9104386414    0.4831279906          0.3708
C467       C    0.4132510049    0.6356444860    0.2877754170          0.3708
C468       C    0.4309733828    0.6320578338    0.3421984658          0.3708
C469       C    0.4773771107    0.6186916461    0.3505351833          0.3708
C470       C    0.5060584607    0.6089121105    0.3044488520          0.3708
C471       C    0.4883360828    0.6124987626    0.2500258031          0.3708
C472       C    0.4419323549    0.6258649504    0.2416890857          0.3708
H473       H    0.3789001933    0.6455389367    0.2816040807          0.3708
H474       H    0.4904966204    0.6160363959    0.3908191944          0.3708
H475       H    0.5404092723    0.5990176598    0.3106201883          0.3708
H476       H    0.4288128452    0.6285202006    0.2014050745          0.3708
C457       C    0.6103450179    0.0172094506    0.8985017569          0.3708
C458       C    0.6103597886    0.0048259196    0.8412007972          0.3708
C459       C    0.6104892747    0.0476696289    0.8017256111          0.3708
C460       C    0.6106039900    0.1028968693    0.8195513847          0.3708
C461       C    0.6105892192    0.1152804004    0.8768523444          0.3708
C462       C    0.6104597332    0.0724366910    0.9163275305          0.3708
H463       H    0.6102491645    0.9854939774    0.9277236479          0.3708
H464       H    0.6105002121    0.0385047392    0.7593103951          0.3708
H465       H    0.6106998434    0.1346123425    0.7903294937          0.3708
H466       H    0.6104487958    0.0816015808    0.9587427465          0.3708
C447       C    0.5181286483    0.7728902492    0.8501735621          0.3708
C448       C    0.5264452116    0.8299833954    0.8503882812          0.3708
C449       C    0.4894794358    0.8671770464    0.8505428755          0.3708
C450       C    0.4441970967    0.8472775511    0.8504827508          0.3708
C451       C    0.4358805334    0.7901844049    0.8502680318          0.3708
C452       C    0.4728463092    0.7529907539    0.8501134374          0.3708
H453       H    0.5454929239    0.7453572867    0.8500591222          0.3708
H454       H    0.4956341566    0.9094383673    0.8507018147          0.3708
H455       H    0.4168328211    0.8748105136    0.8505971908          0.3708
H456       H    0.4666915884    0.7107294330    0.8499544983          0.3708
C437       C    0.5750449475    0.7505651253    0.9852131092          0.3708
C438       C    0.6214089124    0.7519708181    0.9692170262          0.3708
C439       C    0.6526470244    0.7141966003    0.9923067766          0.3708
C440       C    0.6375211715    0.6750166897    0.0313926102          0.3708
C441       C    0.5911572066    0.6736109969    0.0473886932          0.3708
C442       C    0.5599190946    0.7113852148    0.0242989427          0.3708
H443       H    0.5519206308    0.7785278580    0.9681206965          0.3708
H444       H    0.6869664550    0.7152358936    0.9804672636          0.3708
H445       H    0.6606454882    0.6470539570    0.0484850229          0.3708
H446       H    0.5255996640    0.7103459214    0.0361384558          0.3708
C427       C    0.9367906379    0.3319582295    0.9828287745          0.3708
C428       C    0.9434935954    0.2745635626    0.9830752578          0.3708
C429       C    0.9881893624    0.2528570485    0.9831612677          0.3708
C430       C    0.0261821719    0.2885452014    0.9830007942          0.3708
C431       C    0.0194792145    0.3459398684    0.9827543108          0.3708
C432       C    0.9747834475    0.3676463825    0.9826683010          0.3708
H433       H    0.9037041611    0.3480266880    0.9827651048          0.3708
H434       H    0.9931522822    0.2103730331    0.9833437165          0.3708
H435       H    0.0592686488    0.2724767430    0.9830644639          0.3708
H436       H    0.9698205277    0.4101303979    0.9824858521          0.3708
C417       C    0.7764075065    0.1870864218    0.1299517165          0.3708
C418       C    0.7685745819    0.1875166675    0.0720824319          0.3708
C419       C    0.7234631588    0.1877524995    0.0513913948          0.3708
C420       C    0.6861846603    0.1875580858    0.0885696423          0.3708
C421       C    0.6940175849    0.1871278401    0.1464389269          0.3708
C422       C    0.7391290080    0.1868920081    0.1671299640          0.3708
H423       H    0.8098016768    0.1869118448    0.1452684582          0.3708
H424       H    0.7176638281    0.1880709733    0.0085561012          0.3708
H425       H    0.6527904900    0.1877326628    0.0732529006          0.3708
H426       H    0.7449283387    0.1865735343    0.2099652576          0.3708
C407       C    0.7355722284    0.0540982255    0.9046583144          0.3708
C408       C    0.7794984126    0.0471491114    0.9277820147          0.3708
C409       C    0.7953012842    0.9940682098    0.9413438839          0.3708
C410       C    0.7671779714    0.9479364222    0.9317820528          0.3708
C411       C    0.7232517872    0.9548855362    0.9086583524          0.3708
C412       C    0.7074489157    0.0079664379    0.8950964832          0.3708
H413       H    0.7238739988    0.0933918799    0.8946190086          0.3708
H414       H    0.8278157897    0.9889228204    0.9584603939          0.3708
H415       H    0.7788762010    0.9086427677    0.9418213585          0.3708
H416       H    0.6749344101    0.0131118272    0.8779799732          0.3708
C397       C    0.0585054666    0.0490162352    0.8315802786          0.3708
C398       C    0.1002623826    0.0434308485    0.8028295255          0.3708
C399       C    0.1418977919    0.0539929517    0.8304137781          0.3708
C400       C    0.1417762852    0.0701404417    0.8867487837          0.3708
C401       C    0.1000193691    0.0757258284    0.9154995368          0.3708
C402       C    0.0583839598    0.0651637252    0.8879152843          0.3708
H403       H    0.0276844493    0.0411975354    0.8111607670          0.3708
H404       H    0.1728074305    0.0498590026    0.8091334457          0.3708
H405       H    0.1725973025    0.0779591415    0.9071682953          0.3708
H406       H    0.0274743213    0.0692976744    0.9091956166          0.3708
C387       C    0.2671313953    0.0548425242    0.6483107641          0.3708
C388       C    0.2769647678    0.0548237852    0.5908975500          0.3708
C389       C    0.2410091889    0.0547669981    0.5518217403          0.3708
C390       C    0.1952202377    0.0547289499    0.5701591449          0.3708
C391       C    0.1853868652    0.0547476888    0.6275723591          0.3708
C392       C    0.2213424440    0.0548044760    0.6666481687          0.3708
H393       H    0.2937478628    0.0548845614    0.6772370128          0.3708
H394       H    0.2482866784    0.0547531258    0.5093234466          0.3708
H395       H    0.1686037702    0.0546869127    0.5412328962          0.3708
H396       H    0.2140649546    0.0548183482    0.7091464624          0.3708
C377       C    0.9950050186    0.0835682313    0.8003010701          0.3708
C378       C    0.9879766383    0.1124998949    0.7502210504          0.3708
C379       C    0.9523109207    0.1512863086    0.7462514977          0.3708
C380       C    0.9236735834    0.1611410585    0.7923619647          0.3708
C381       C    0.9307019637    0.1322093949    0.8424419843          0.3708
C382       C    0.9663676813    0.0934229813    0.8464115370          0.3708
H383       H    0.0214069134    0.0548562108    0.8032395702          0.3708
H384       H    0.9471074099    0.1727026506    0.7091823195          0.3708
H385       H    0.8972716885    0.1898530790    0.7894234646          0.3708
H386       H    0.9715711921    0.0720066392    0.8834807152          0.3708
C367       C    0.0044337185    0.3195863783    0.4011297354          0.3708
C368       C    0.0271945590    0.3295327539    0.3504279277          0.3708
C369       C    0.0047001670    0.3194912100    0.2995487644          0.3708
C370       C    0.9594449344    0.2995032905    0.2993714089          0.3708
C371       C    0.9366840939    0.2895569148    0.3500732165          0.3708
C372       C    0.9591784859    0.2995984587    0.4009523798          0.3708
H373       H    0.0210854113    0.3270197289    0.4387935316          0.3708
H374       H    0.0215469484    0.3268531641    0.2620178564          0.3708
H375       H    0.9427932416    0.2920699398    0.2617076127          0.3708
H376       H    0.9423317046    0.2922365046    0.4384832878          0.3708
C357       C    0.0692516372    0.5329331587    0.3478500424          0.3612
C358       C    0.1109153929    0.5044868934    0.3414107308          0.3708
C359       C    0.1526403968    0.5312616085    0.3528174000          0.3708
C360       C    0.1527016451    0.5864825888    0.3706633808          0.3708
C361       C    0.1110378894    0.6149288541    0.3771026924          0.3708
C362       C    0.0693128855    0.5881541390    0.3656960232          0.3708
H363       H    0.0383642966    0.5131129150    0.3394061444          0.3708
H364       H    0.1834810811    0.5102066314    0.3480514055          0.3708
H365       H    0.1835889856    0.6063028324    0.3791072788          0.3708
H366       H    0.0384722011    0.6092091161    0.3704620177          0.3708
C347       C    0.2068241226    0.5077083261    0.3982569719          0.3708
C348       C    0.2236573666    0.4544286566    0.4088732882          0.3708
C349       C    0.2685672416    0.4473412601    0.4289546835          0.3708
C350       C    0.2966438726    0.4935335332    0.4384197624          0.3708
C351       C    0.2798106285    0.5468132028    0.4278034461          0.3708
C352       C    0.2349007535    0.5539005992    0.4077220508          0.3708
H353       H    0.1735791502    0.5129548404    0.3833915234          0.3708
H354       H    0.2810285703    0.4079036138    0.4368134787          0.3708
H355       H    0.3298888450    0.4882870190    0.4532852109          0.3708
H356       H    0.2224394248    0.5933382456    0.3998632556          0.3708
C337       C    0.1168336251    0.1960774519    0.4539109964          0.3708
C338       C    0.1216734664    0.2516361234    0.4695818384          0.3708
C339       C    0.1112042663    0.2681282780    0.5243492204          0.3708
C340       C    0.0958952250    0.2290617610    0.5634457604          0.3708
C341       C    0.0910553838    0.1735030894    0.5477749184          0.3708
C342       C    0.1015245838    0.1570109349    0.4930075364          0.3708
H343       H    0.1245835525    0.1838689738    0.4133689084          0.3708
H344       H    0.1147863683    0.3092531311    0.5359504552          0.3708
H345       H    0.0881452977    0.2412702390    0.6039878484          0.3708
H346       H    0.0979424819    0.1158860818    0.4814063016          0.3708
loop_
_geom_bond_atom_site_label_1
_geom_bond_atom_site_label_2
_geom_bond_distance
_geom_bond_site_symmetry_2
_ccdc_geom_bond_type
O1          Cu9 1.951       .   S
O1          C11 1.250       .   A
O2          Cu9 1.951       .   S
O2          C12 1.250       .   A
O3          Cu9 1.951       .   S
O3          C13 1.250       .   A
O4          Cu9 1.951       .   S
O4          C14 1.250       .   A
O5         Cu10 1.951       .   S
O5          C14 1.250       .   A
O6         Cu10 1.951       .   S
O6          C13 1.251       .   A
O7         Cu10 1.951       .   S
O7          C12 1.250       .   A
O8         Cu10 1.951       .   S
O8          C11 1.250       .   A
Cu9        Cu10 2.630       .   S
C11        C368 0.921       .   S
C12        C348 1.531       .   S
C13        C338 1.757       .   S
C14        C358 1.414       .   S
O15        Cu23 1.951       .   S
O15         C25 1.250       .   A
O16        Cu23 1.951       .   S
O16         C26 1.250       .   A
O17        Cu23 1.951       .   S
O17         C27 1.250       .   A
O18        Cu23 1.951       .   S
O18         C28 1.250       .   A
O19        Cu24 1.951       .   S
O19         C28 1.250       .   A
O20        Cu24 1.951       .   S
O20         C27 1.251       .   A
O21        Cu24 1.951       .   S
O21         C26 1.250       .   A
O22        Cu24 1.951       .   S
O22         C25 1.250       .   A
Cu23       Cu24 2.630       .   S
C25        C391 0.923       .   S
C26        C378 1.508       .   S
C27        C341 1.757       .   S
C28        C398 1.410       .   S
O29        Cu37 1.951       .   S
O29         C39 1.250       .   A
O30        Cu37 1.951       .   S
O30         C40 1.250       .   A
O31        Cu37 1.951       .   S
O31         C41 1.250       .   A
O32        Cu37 1.951       .   S
O32         C42 1.250       .   A
O33        Cu38 1.951       .   S
O33         C42 1.250       .   A
O34        Cu38 1.951       .   S
O34         C41 1.251       .   A
O35        Cu38 1.951       .   S
O35         C40 1.250       .   A
O36        Cu38 1.951       .   S
O36         C39 1.250       .   A
Cu37       Cu38 2.630       .   S
C39        C428 1.644       .   S
C40        C408 1.534       .   S
C41        C381 1.508   1_655   S
C42        C418 1.620       .   S
O43        Cu51 1.951       .   S
O43         C53 1.250       .   A
O44        Cu51 1.951       .   S
O44         C54 1.250       .   A
O45        Cu51 1.951       .   S
O45         C55 1.250       .   A
O46        Cu51 1.951       .   S
O46         C56 1.250       .   A
O47        Cu52 1.951       .   S
O47         C56 1.250       .   A
O48        Cu52 1.951       .   S
O48         C55 1.251       .   A
O49        Cu52 1.951       .   S
O49         C54 1.250       .   A
O50        Cu52 1.951       .   S
O50         C53 1.250       .   A
Cu51       Cu52 2.630       .   S
C53        C448 0.926       .   S
C54        C411 1.534   1_565   S
C55        C438 1.755       .   S
C56        C458 1.410       .   S
O57        Cu65 1.951       .   S
O57         C67 1.250       .   A
O58        Cu65 1.951       .   S
O58         C68 1.250       .   A
O59        Cu65 1.951       .   S
O59         C69 1.250       .   A
O60        Cu65 1.951       .   S
O60         C70 1.250       .   A
O61        Cu66 1.951       .   S
O61         C70 1.250       .   A
O62        Cu66 1.951       .   S
O62         C69 1.251       .   A
O63        Cu66 1.951       .   S
O63         C68 1.250       .   A
O64        Cu66 1.951       .   S
O64         C67 1.250       .   A
Cu65       Cu66 2.630       .   S
C67        C351 1.531       .   S
C68        C478 1.643       .   S
C69        C488 1.619       .   S
C70        C468 1.513       .   S
O71        Cu79 1.951       .   S
O71         C81 1.250       .   A
O72        Cu79 1.951       .   S
O72         C82 1.250       .   A
O73        Cu79 1.951       .   S
O73         C83 1.250       .   A
O74        Cu79 1.951       .   S
O74         C84 1.250       .   A
O75        Cu80 1.951       .   S
O75         C84 1.250       .   A
O76        Cu80 1.951       .   S
O76         C83 1.251       .   A
O77        Cu80 1.951       .   S
O77         C82 1.250       .   A
O78        Cu80 1.951       .   S
O78         C81 1.250       .   A
Cu79       Cu80 2.630       .   S
C81        C498 0.920       .   S
C82        C471 1.513       .   S
C83        C441 1.755   1_554   S
C84        C508 1.411       .   S
O85        Cu93 1.951       .   S
O85         C95 1.250       .   A
O86        Cu93 1.951       .   S
O86         C96 1.250       .   A
O87        Cu93 1.951       .   S
O87         C97 1.250       .   A
O88        Cu93 1.951       .   S
O88         C98 1.250       .   A
O89        Cu94 1.951       .   S
O89         C98 1.250       .   A
O90        Cu94 1.951       .   S
O90         C97 1.251       .   A
O91        Cu94 1.951       .   S
O91         C96 1.250       .   A
O92        Cu94 1.951       .   S
O92         C95 1.250       .   A
Cu93       Cu94 2.630       .   S
C95        C531 1.529       .   S
C96        C538 0.924       .   S
C97        C361 1.414       .   S
C98        C518 1.759       .   S
O99       Cu107 1.951       .   S
O99        C109 1.250       .   A
O100      Cu107 1.951       .   S
O100       C110 1.250       .   A
O101      Cu107 1.951       .   S
O101       C111 1.250       .   A
O102      Cu107 1.951       .   S
O102       C112 1.250       .   A
O103      Cu108 1.951       .   S
O103       C112 1.250       .   A
O104      Cu108 1.951       .   S
O104       C111 1.251       .   A
O105      Cu108 1.951       .   S
O105       C110 1.250       .   A
O106      Cu108 1.951       .   S
O106       C109 1.250       .   A
Cu107     Cu108 2.630       .   S
C109       C548 1.509       .   S
C110       C558 0.925       .   S
C111       C401 1.410   1_554   S
C112       C521 1.759   1_545   S
O113      Cu121 1.951       .   S
O113       C123 1.250       .   A
O114      Cu121 1.951       .   S
O114       C124 1.250       .   A
O115      Cu121 1.951       .   S
O115       C125 1.250       .   A
O116      Cu121 1.951       .   S
O116       C126 1.250       .   A
O117      Cu122 1.951       .   S
O117       C126 1.250       .   A
O118      Cu122 1.951       .   S
O118       C125 1.251       .   A
O119      Cu122 1.951       .   S
O119       C124 1.250       .   A
O120      Cu122 1.951       .   S
O120       C123 1.250       .   A
Cu121     Cu122 2.630       .   S
C123       C588 1.646       .   S
C124       C568 1.533       .   S
C125       C551 1.509   1_666   S
C126       C578 1.618       .   S
O127      Cu135 1.951       .   S
O127       C137 1.250       .   A
O128      Cu135 1.951       .   S
O128       C138 1.250       .   A
O129      Cu135 1.951       .   S
O129       C139 1.250       .   A
O130      Cu135 1.951       .   S
O130       C140 1.250       .   A
O131      Cu136 1.951       .   S
O131       C140 1.250       .   A
O132      Cu136 1.951       .   S
O132       C139 1.251       .   A
O133      Cu136 1.951       .   S
O133       C138 1.250       .   A
O134      Cu136 1.951       .   S
O134       C137 1.250       .   A
Cu135     Cu136 2.630       .   S
C137       C608 1.641       .   S
C138       C528 1.529       .   S
C139       C598 1.507       .   S
C140       C618 1.616       .   S
O141      Cu149 1.951       .   S
O141       C151 1.250       .   A
O142      Cu149 1.951       .   S
O142       C152 1.250       .   A
O143      Cu149 1.951       .   S
O143       C153 1.250       .   A
O144      Cu149 1.951       .   S
O144       C154 1.250       .   A
O145      Cu150 1.951       .   S
O145       C154 1.250       .   A
O146      Cu150 1.951       .   S
O146       C153 1.251       .   A
O147      Cu150 1.951       .   S
O147       C152 1.250       .   A
O148      Cu150 1.951       .   S
O148       C151 1.250       .   A
Cu149     Cu150 2.630       .   S
C151       C601 1.507       .   S
C152       C638 0.914       .   S
C153       C511 1.411       .   S
C154       C628 1.764       .   S
O155      Cu163 1.951       .   S
O155       C165 1.250       .   A
O156      Cu163 1.951       .   S
O156       C166 1.250       .   A
O157      Cu163 1.951       .   S
O157       C167 1.250       .   A
O158      Cu163 1.951       .   S
O158       C168 1.250       .   A
O159      Cu164 1.951       .   S
O159       C168 1.250       .   A
O160      Cu164 1.951       .   S
O160       C167 1.251       .   A
O161      Cu164 1.951       .   S
O161       C166 1.250       .   A
O162      Cu164 1.951       .   S
O162       C165 1.250       .   A
Cu163     Cu164 2.630       .   S
C165       C571 1.533   1_545   S
C166       C648 0.928       .   S
C167       C461 1.410   1_545   S
C168       C631 1.764       .   S
O169      Cu177 1.951       .   S
O169       C179 1.250       .   A
O170      Cu177 1.951       .   S
O170       C180 1.250       .   A
O171      Cu177 1.951       .   S
O171       C181 1.250       .   A
O172      Cu177 1.951       .   S
O172       C182 1.250       .   A
O173      Cu178 1.951       .   S
O173       C182 1.250       .   A
O174      Cu178 1.951       .   S
O174       C181 1.251       .   A
O175      Cu178 1.951       .   S
O175       C180 1.250       .   A
O176      Cu178 1.951       .   S
O176       C179 1.250       .   A
Cu177     Cu178 2.630       .   S
C179       C481 1.643       .   S
C180       C668 1.528       .   S
C181       C658 1.507       .   S
C182       C581 1.618       .   S
O183      Cu191 1.951       .   S
O183       C193 1.250       .   A
O184      Cu191 1.951       .   S
O184       C194 1.250       .   A
O185      Cu191 1.951       .   S
O185       C195 1.250       .   A
O186      Cu191 1.951       .   S
O186       C196 1.250       .   A
O187      Cu192 1.951       .   S
O187       C196 1.250       .   A
O188      Cu192 1.951       .   S
O188       C195 1.251       .   A
O189      Cu192 1.951       .   S
O189       C194 1.250       .   A
O190      Cu192 1.951       .   S
O190       C193 1.250       .   A
Cu191     Cu192 2.630       .   S
C193       C561 0.925       .   S
C194       C661 1.507   1_545   S
C195       C678 1.768       .   S
C196       C688 1.420       .   S
O197      Cu205 1.951       .   S
O197       C207 1.250       .   A
O198      Cu205 1.951       .   S
O198       C208 1.250       .   A
O199      Cu205 1.951       .   S
O199       C209 1.250       .   A
O200      Cu205 1.951       .   S
O200       C210 1.250       .   A
O201      Cu206 1.951       .   S
O201       C210 1.250       .   A
O202      Cu206 1.951       .   S
O202       C209 1.251       .   A
O203      Cu206 1.951       .   S
O203       C208 1.250       .   A
O204      Cu206 1.951       .   S
O204       C207 1.250       .   A
Cu205     Cu206 2.630       .   S
C207       C451 0.926       .   S
C208       C698 1.526       .   S
C209       C681 1.768   1_566   S
C210       C711 1.419       .   S
O211      Cu219 1.951       .   S
O211       C221 1.250       .   A
O212      Cu219 1.951       .   S
O212       C222 1.250       .   A
O213      Cu219 1.951       .   S
O213       C223 1.250       .   A
O214      Cu219 1.951       .   S
O214       C224 1.250       .   A
O215      Cu220 1.951       .   S
O215       C224 1.250       .   A
O216      Cu220 1.951       .   S
O216       C223 1.251       .   A
O217      Cu220 1.951       .   S
O217       C222 1.250       .   A
O218      Cu220 1.951       .   S
O218       C221 1.250       .   A
Cu219     Cu220 2.630       .   S
C221       C371 0.921   1_655   S
C222       C671 1.528   1_545   S
C223       C718 1.756       .   S
C224       C728 1.420       .   S
O225      Cu233 1.951       .   S
O225       C235 1.250       .   A
O226      Cu233 1.951       .   S
O226       C236 1.250       .   A
O227      Cu233 1.951       .   S
O227       C237 1.250       .   A
O228      Cu233 1.951       .   S
O228       C238 1.250       .   A
O229      Cu234 1.951       .   S
O229       C238 1.250       .   A
O230      Cu234 1.951       .   S
O230       C237 1.251       .   A
O231      Cu234 1.951       .   S
O231       C236 1.250       .   A
O232      Cu234 1.951       .   S
O232       C235 1.250       .   A
Cu233     Cu234 2.630       .   S
C235       C431 1.644   1_455   S
C236       C701 1.526       .   S
C237       C738 1.514       .   S
C238       C621 1.616   1_556   S
O239      Cu247 1.951       .   S
O239       C249 1.250       .   A
O240      Cu247 1.951       .   S
O240       C250 1.250       .   A
O241      Cu247 1.951       .   S
O241       C251 1.250       .   A
O242      Cu247 1.951       .   S
O242       C252 1.250       .   A
O243      Cu248 1.951       .   S
O243       C252 1.250       .   A
O244      Cu248 1.951       .   S
O244       C251 1.251       .   A
O245      Cu248 1.951       .   S
O245       C250 1.250       .   A
O246      Cu248 1.951       .   S
O246       C249 1.250       .   A
Cu247     Cu248 2.630       .   S
C249       C641 0.914       .   S
C250       C741 1.514   1_655   S
C251       C721 1.756       .   S
C252       C748 1.412       .   S
O253      Cu261 1.951       .   S
O253       C263 1.250       .   A
O254      Cu261 1.951       .   S
O254       C264 1.250       .   A
O255      Cu261 1.951       .   S
O255       C265 1.250       .   A
O256      Cu261 1.951       .   S
O256       C266 1.250       .   A
O257      Cu262 1.951       .   S
O257       C266 1.250       .   A
O258      Cu262 1.951       .   S
O258       C265 1.251       .   A
O259      Cu262 1.951       .   S
O259       C264 1.250       .   A
O260      Cu262 1.951       .   S
O260       C263 1.250       .   A
Cu261     Cu262 2.630       .   S
C263       C651 0.928       .   S
C264       C768 1.532       .   S
C265       C758 1.761       .   S
C266       C708 1.419       .   S
O267      Cu275 1.951       .   S
O267       C277 1.250       .   A
O268      Cu275 1.951       .   S
O268       C278 1.250       .   A
O269      Cu275 1.951       .   S
O269       C279 1.250       .   A
O270      Cu275 1.951       .   S
O270       C280 1.250       .   A
O271      Cu276 1.951       .   S
O271       C280 1.250       .   A
O272      Cu276 1.951       .   S
O272       C279 1.251       .   A
O273      Cu276 1.951       .   S
O273       C278 1.250       .   A
O274      Cu276 1.951       .   S
O274       C277 1.250       .   A
Cu275     Cu276 2.630       .   S
C277       C388 0.923       .   S
C278       C778 1.509       .   S
C279       C761 1.761       .   S
C280       C691 1.420       .   S
O281      Cu289 1.951       .   S
O281       C291 1.250       .   A
O282      Cu289 1.951       .   S
O282       C292 1.250       .   A
O283      Cu289 1.951       .   S
O283       C293 1.250       .   A
O284      Cu289 1.951       .   S
O284       C294 1.250       .   A
O285      Cu290 1.951       .   S
O285       C294 1.250       .   A
O286      Cu290 1.951       .   S
O286       C293 1.251       .   A
O287      Cu290 1.951       .   S
O287       C292 1.250       .   A
O288      Cu290 1.951       .   S
O288       C291 1.250       .   A
Cu289     Cu290 2.630       .   S
C291       C788 1.543       .   S
C292       C611 1.641       .   S
C293       C421 1.620   1_554   S
C294       C781 1.509       .   S
O295      Cu303 1.951       .   S
O295       C305 1.250       .   A
O296      Cu303 1.951       .   S
O296       C306 1.250       .   A
O297      Cu303 1.951       .   S
O297       C307 1.250       .   A
O298      Cu303 1.951       .   S
O298       C308 1.250       .   A
O299      Cu304 1.951       .   S
O299       C308 1.250       .   A
O300      Cu304 1.951       .   S
O300       C307 1.251       .   A
O301      Cu304 1.951       .   S
O301       C306 1.250       .   A
O302      Cu304 1.951       .   S
O302       C305 1.250       .   A
Cu303     Cu304 2.630       .   S
C305       C541 0.924   1_655   S
C306       C791 1.543   1_565   S
C307       C798 1.763       .   S
C308       C731 1.420   1_565   S
O309      Cu317 1.951       .   S
O309       C319 1.250       .   A
O310      Cu317 1.951       .   S
O310       C320 1.250       .   A
O311      Cu317 1.951       .   S
O311       C321 1.250       .   A
O312      Cu317 1.951       .   S
O312       C322 1.250       .   A
O313      Cu318 1.951       .   S
O313       C322 1.250       .   A
O314      Cu318 1.951       .   S
O314       C321 1.251       .   A
O315      Cu318 1.951       .   S
O315       C320 1.250       .   A
O316      Cu318 1.951       .   S
O316       C319 1.250       .   A
Cu317     Cu318 2.630       .   S
C319       C771 1.532       .   S
C320       C591 1.646   1_455   S
C321       C491 1.619       .   S
C322       C808 1.500       .   S
O323      Cu331 1.951       .   S
O323       C333 1.250       .   A
O324      Cu331 1.951       .   S
O324       C334 1.250       .   A
O325      Cu331 1.951       .   S
O325       C335 1.250       .   A
O326      Cu331 1.951       .   S
O326       C336 1.250       .   A
O327      Cu332 1.951       .   S
O327       C336 1.250       .   A
O328      Cu332 1.951       .   S
O328       C335 1.251       .   A
O329      Cu332 1.951       .   S
O329       C334 1.250       .   A
O330      Cu332 1.951       .   S
O330       C333 1.250       .   A
Cu331     Cu332 2.630       .   S
C333       C501 0.920       .   S
C334       C811 1.500   1_654   S
C335       C801 1.763       .   S
C336       C751 1.412   1_554   S
C807       C808 1.540       .   A
C807       C812 1.540       .   A
C807       H813 1.140       .   S
C808       C809 1.540       .   A
C809       C810 1.540       .   A
C809       H814 1.140       .   S
C810       C811 1.540       .   A
C810       H815 1.140       .   S
C811       C812 1.540       .   A
C812       H816 1.140       .   S
C797       C798 1.540       .   A
C797       C802 1.540       .   A
C797       H803 1.140       .   S
C798       C799 1.540       .   A
C799       C800 1.540       .   A
C799       H804 1.140       .   S
C800       C801 1.540       .   A
C800       H805 1.140       .   S
C801       C802 1.540       .   A
C802       H806 1.140       .   S
C787       C788 1.540       .   A
C787       C792 1.540       .   A
C787       H793 1.140       .   S
C788       C789 1.540       .   A
C789       C790 1.540       .   A
C789       H794 1.140       .   S
C790       C791 1.540       .   A
C790       H795 1.140       .   S
C791       C792 1.540       .   A
C792       H796 1.140       .   S
C777       C778 1.540       .   A
C777       C782 1.540       .   A
C777       H783 1.140       .   S
C778       C779 1.540       .   A
C779       C780 1.540       .   A
C779       H784 1.140       .   S
C780       C781 1.540       .   A
C780       H785 1.140       .   S
C781       C782 1.540       .   A
C782       H786 1.140       .   S
C767       C768 1.540       .   A
C767       C772 1.540       .   A
C767       H773 1.140       .   S
C768       C769 1.540       .   A
C769       C770 1.540       .   A
C769       H774 1.140       .   S
C770       C771 1.540       .   A
C770       H775 1.140       .   S
C771       C772 1.540       .   A
C772       H776 1.140       .   S
C757       C758 1.540       .   A
C757       C762 1.540       .   A
C757       H763 1.140       .   S
C758       C759 1.540       .   A
C759       C760 1.540       .   A
C759       H764 1.140       .   S
C760       C761 1.540       .   A
C760       H765 1.140       .   S
C761       C762 1.540       .   A
C762       H766 1.140       .   S
C747       C748 1.540       .   A
C747       C752 1.540       .   A
C747       H753 1.140       .   S
C748       C749 1.540       .   A
C749       C750 1.540       .   A
C749       H754 1.140       .   S
C750       C751 1.540       .   A
C750       H755 1.140       .   S
C751       C752 1.540       .   A
C752       H756 1.140       .   S
C737       C738 1.540       .   A
C737       C742 1.540       .   A
C737       H743 1.140       .   S
C738       C739 1.540       .   A
C739       C740 1.540       .   A
C739       H744 1.140       .   S
C740       C741 1.540       .   A
C740       H745 1.140       .   S
C741       C742 1.540       .   A
C742       H746 1.140       .   S
C727       C728 1.540       .   A
C727       C732 1.540       .   A
C727       H733 1.140       .   S
C728       C729 1.540       .   A
C729       C730 1.540       .   A
C729       H734 1.140       .   S
C730       C731 1.540       .   A
C730       H735 1.140       .   S
C731       C732 1.540       .   A
C732       H736 1.140       .   S
C717       C718 1.540       .   A
C717       C722 1.540       .   A
C717       H723 1.140       .   S
C718       C719 1.540       .   A
C719       C720 1.540       .   A
C719       H724 1.140       .   S
C720       C721 1.540       .   A
C720       H725 1.140       .   S
C721       C722 1.540       .   A
C722       H726 1.140       .   S
C707       C708 1.540       .   A
C707       C712 1.540       .   A
C707       H713 1.140       .   S
C708       C709 1.540       .   A
C709       C710 1.540       .   A
C709       H714 1.140       .   S
C710       C711 1.540       .   A
C710       H715 1.140       .   S
C711       C712 1.540       .   A
C712       H716 1.140       .   S
C697       C698 1.540       .   A
C697       C702 1.540       .   A
C697       H703 1.140       .   S
C698       C699 1.540       .   A
C699       C700 1.540       .   A
C699       H704 1.140       .   S
C700       C701 1.540       .   A
C700       H705 1.140       .   S
C701       C702 1.540       .   A
C702       H706 1.140       .   S
C687       C688 1.540       .   A
C687       C692 1.540       .   A
C687       H693 1.140       .   S
C688       C689 1.540       .   A
C689       C690 1.540       .   A
C689       H694 1.140       .   S
C690       C691 1.540       .   A
C690       H695 1.140       .   S
C691       C692 1.540       .   A
C692       H696 1.140       .   S
C677       C678 1.540       .   A
C677       C682 1.540       .   A
C677       H683 1.140       .   S
C678       C679 1.540       .   A
C679       C680 1.540       .   A
C679       H684 1.140       .   S
C680       C681 1.540       .   A
C680       H685 1.140       .   S
C681       C682 1.540       .   A
C682       H686 1.140       .   S
C667       C668 1.540       .   A
C667       C672 1.540       .   A
C667       H673 1.140       .   S
C668       C669 1.540       .   A
C669       C670 1.540       .   A
C669       H674 1.140       .   S
C670       C671 1.540       .   A
C670       H675 1.140       .   S
C671       C672 1.540       .   A
C672       H676 1.140       .   S
C657       C658 1.540       .   A
C657       C662 1.540       .   A
C657       H663 1.140       .   S
C658       C659 1.540       .   A
C659       C660 1.540       .   A
C659       H664 1.140       .   S
C660       C661 1.540       .   A
C660       H665 1.140       .   S
C661       C662 1.540       .   A
C662       H666 1.140       .   S
C647       C648 1.540       .   A
C647       C652 1.540       .   A
C647       H653 1.140       .   S
C648       C649 1.540       .   A
C649       C650 1.540       .   A
C649       H654 1.140       .   S
C650       C651 1.540       .   A
C650       H655 1.140       .   S
C651       C652 1.540       .   A
C652       H656 1.140       .   S
C637       C638 1.540       .   A
C637       C642 1.540       .   A
C637       H643 1.140       .   S
C638       C639 1.540       .   A
C639       C640 1.540       .   A
C639       H644 1.140       .   S
C640       C641 1.540       .   A
C640       H645 1.140       .   S
C641       C642 1.540       .   A
C642       H646 1.140       .   S
C627       C628 1.540       .   A
C627       C632 1.540       .   A
C627       H633 1.140       .   S
C628       C629 1.540       .   A
C629       C630 1.540       .   A
C629       H634 1.140       .   S
C630       C631 1.540       .   A
C630       H635 1.140       .   S
C631       C632 1.540       .   A
C632       H636 1.140       .   S
C617       C618 1.540       .   A
C617       C622 1.540       .   A
C617       H623 1.140       .   S
C618       C619 1.540       .   A
C619       C620 1.540       .   A
C619       H624 1.140       .   S
C620       C621 1.540       .   A
C620       H625 1.140       .   S
C621       C622 1.540       .   A
C622       H626 1.140       .   S
C607       C608 1.540       .   A
C607       C612 1.540       .   A
C607       H613 1.140       .   S
C608       C609 1.540       .   A
C609       C610 1.540       .   A
C609       H614 1.140       .   S
C610       C611 1.540       .   A
C610       H615 1.140       .   S
C611       C612 1.540       .   A
C612       H616 1.140       .   S
C597       C598 1.540       .   A
C597       C602 1.540       .   A
C597       H603 1.140       .   S
C598       C599 1.540       .   A
C599       C600 1.540       .   A
C599       H604 1.140       .   S
C600       C601 1.540       .   A
C600       H605 1.140       .   S
C601       C602 1.540       .   A
C602       H606 1.140       .   S
C587       C588 1.540       .   A
C587       C592 1.540       .   A
C587       H593 1.140       .   S
C588       C589 1.540       .   A
C589       C590 1.540       .   A
C589       H594 1.140       .   S
C590       C591 1.540       .   A
C590       H595 1.140       .   S
C591       C592 1.540       .   A
C592       H596 1.140       .   S
C577       C578 1.540       .   A
C577       C582 1.540       .   A
C577       H583 1.140       .   S
C578       C579 1.540       .   A
C579       C580 1.540       .   A
C579       H584 1.140       .   S
C580       C581 1.540       .   A
C580       H585 1.140       .   S
C581       C582 1.540       .   A
C582       H586 1.140       .   S
C567       C568 1.540       .   A
C567       C572 1.540       .   A
C567       H573 1.140       .   S
C568       C569 1.540       .   A
C569       C570 1.540       .   A
C569       H574 1.140       .   S
C570       C571 1.540       .   A
C570       H575 1.140       .   S
C571       C572 1.540       .   A
C572       H576 1.140       .   S
C557       C558 1.540       .   A
C557       C562 1.540       .   A
C557       H563 1.140       .   S
C558       C559 1.540       .   A
C559       C560 1.540       .   A
C559       H564 1.140       .   S
C560       C561 1.540       .   A
C560       H565 1.140       .   S
C561       C562 1.540       .   A
C562       H566 1.140       .   S
C547       C548 1.540       .   A
C547       C552 1.540       .   A
C547       H553 1.140       .   S
C548       C549 1.540       .   A
C549       C550 1.540       .   A
C549       H554 1.140       .   S
C550       C551 1.540       .   A
C550       H555 1.140       .   S
C551       C552 1.540       .   A
C552       H556 1.140       .   S
C537       C538 1.540       .   A
C537       C542 1.540       .   A
C537       H543 1.140       .   S
C538       C539 1.540       .   A
C539       C540 1.540       .   A
C539       H544 1.140       .   S
C540       C541 1.540       .   A
C540       H545 1.140       .   S
C541       C542 1.540       .   A
C542       H546 1.140       .   S
C527       C528 1.540       .   A
C527       C532 1.540       .   A
C527       H533 1.140       .   S
C528       C529 1.540       .   A
C529       C530 1.540       .   A
C529       H534 1.140       .   S
C530       C531 1.540       .   A
C530       H535 1.140       .   S
C531       C532 1.540       .   A
C532       H536 1.140       .   S
C517       C518 1.540       .   A
C517       C522 1.540       .   A
C517       H523 1.140       .   S
C518       C519 1.540       .   A
C519       C520 1.540       .   A
C519       H524 1.140       .   S
C520       C521 1.540       .   A
C520       H525 1.140       .   S
C521       C522 1.540       .   A
C522       H526 1.140       .   S
C507       C508 1.540       .   A
C507       C512 1.540       .   A
C507       H513 1.140       .   S
C508       C509 1.540       .   A
C509       C510 1.540       .   A
C509       H514 1.140       .   S
C510       C511 1.540       .   A
C510       H515 1.140       .   S
C511       C512 1.540       .   A
C512       H516 1.140       .   S
C497       C498 1.540       .   A
C497       C502 1.540       .   A
C497       H503 1.140       .   S
C498       C499 1.540       .   A
C499       C500 1.540       .   A
C499       H504 1.140       .   S
C500       C501 1.540       .   A
C500       H505 1.140       .   S
C501       C502 1.540       .   A
C502       H506 1.140       .   S
C487       C488 1.540       .   A
C487       C492 1.540       .   A
C487       H493 1.140       .   S
C488       C489 1.540       .   A
C489       C490 1.540       .   A
C489       H494 1.140       .   S
C490       C491 1.540       .   A
C490       H495 1.140       .   S
C491       C492 1.540       .   A
C492       H496 1.140       .   S
C477       C478 1.540       .   A
C477       C482 1.540       .   A
C477       H483 1.140       .   S
C478       C479 1.540       .   A
C479       C480 1.540       .   A
C479       H484 1.140       .   S
C480       C481 1.540       .   A
C480       H485 1.140       .   S
C481       C482 1.540       .   A
C482       H486 1.140       .   S
C467       C468 1.540       .   A
C467       C472 1.540       .   A
C467       H473 1.140       .   S
C468       C469 1.540       .   A
C469       C470 1.540       .   A
C469       H474 1.140       .   S
C470       C471 1.540       .   A
C470       H475 1.140       .   S
C471       C472 1.540       .   A
C472       H476 1.140       .   S
C457       C458 1.540       .   A
C457       C462 1.540       .   A
C457       H463 1.140       .   S
C458       C459 1.540       .   A
C459       C460 1.540       .   A
C459       H464 1.140       .   S
C460       C461 1.540       .   A
C460       H465 1.140       .   S
C461       C462 1.540       .   A
C462       H466 1.140       .   S
C447       C448 1.540       .   A
C447       C452 1.540       .   A
C447       H453 1.140       .   S
C448       C449 1.540       .   A
C449       C450 1.540       .   A
C449       H454 1.140       .   S
C450       C451 1.540       .   A
C450       H455 1.140       .   S
C451       C452 1.540       .   A
C452       H456 1.140       .   S
C437       C438 1.540       .   A
C437       C442 1.540       .   A
C437       H443 1.140       .   S
C438       C439 1.540       .   A
C439       C440 1.540       .   A
C439       H444 1.140       .   S
C440       C441 1.540       .   A
C440       H445 1.140       .   S
C441       C442 1.540       .   A
C442       H446 1.140       .   S
C427       C428 1.540       .   A
C427       C432 1.540       .   A
C427       H433 1.140       .   S
C428       C429 1.540       .   A
C429       C430 1.540       .   A
C429       H434 1.140       .   S
C430       C431 1.540       .   A
C430       H435 1.140       .   S
C431       C432 1.540       .   A
C432       H436 1.140       .   S
C417       C418 1.540       .   A
C417       C422 1.540       .   A
C417       H423 1.140       .   S
C418       C419 1.540       .   A
C419       C420 1.540       .   A
C419       H424 1.140       .   S
C420       C421 1.540       .   A
C420       H425 1.140       .   S
C421       C422 1.540       .   A
C422       H426 1.140       .   S
C407       C408 1.540       .   A
C407       C412 1.540       .   A
C407       H413 1.140       .   S
C408       C409 1.540       .   A
C409       C410 1.540       .   A
C409       H414 1.140       .   S
C410       C411 1.540       .   A
C410       H415 1.140       .   S
C411       C412 1.540       .   A
C412       H416 1.140       .   S
C397       C398 1.540       .   A
C397       C402 1.540       .   A
C397       H403 1.140       .   S
C398       C399 1.540       .   A
C399       C400 1.540       .   A
C399       H404 1.140       .   S
C400       C401 1.540       .   A
C400       H405 1.140       .   S
C401       C402 1.540       .   A
C402       H406 1.140       .   S
C387       C388 1.540       .   A
C387       C392 1.540       .   A
C387       H393 1.140       .   S
C388       C389 1.540       .   A
C389       C390 1.540       .   A
C389       H394 1.140       .   S
C390       C391 1.540       .   A
C390       H395 1.140       .   S
C391       C392 1.540       .   A
C392       H396 1.140       .   S
C377       C378 1.540       .   A
C377       C382 1.540       .   A
C377       H383 1.140       .   S
C378       C379 1.540       .   A
C379       C380 1.540       .   A
C379       H384 1.140       .   S
C380       C381 1.540       .   A
C380       H385 1.140       .   S
C381       C382 1.540       .   A
C382       H386 1.140       .   S
C367       C368 1.540       .   A
C367       C372 1.540       .   A
C367       H373 1.140       .   S
C368       C369 1.540       .   A
C369       C370 1.540       .   A
C369       H374 1.140       .   S
C370       C371 1.540       .   A
C370       H375 1.140       .   S
C371       C372 1.540       .   A
C372       H376 1.140       .   S
C357       C358 1.540       .   A
C357       C362 1.540       .   A
C357       H363 1.140       .   S
C358       C359 1.540       .   A
C359       C360 1.540       .   A
C359       H364 1.140       .   S
C360       C361 1.540       .   A
C360       H365 1.140       .   S
C361       C362 1.540       .   A
C362       H366 1.140       .   S
C347       C348 1.540       .   A
C347       C352 1.540       .   A
C347       H353 1.140       .   S
C348       C349 1.540       .   A
C349       C350 1.540       .   A
C349       H354 1.140       .   S
C350       C351 1.540       .   A
C350       H355 1.140       .   S
C351       C352 1.540       .   A
C352       H356 1.140       .   S
C337       C338 1.540       .   A
C337       C342 1.540       .   A
C337       H343 1.140       .   S
C338       C339 1.540       .   A
C339       C340 1.540       .   A
C339       H344 1.140       .   S
C340       C341 1.540       .   A
C340       H345 1.140       .   S
C341       C342 1.540       .   A
C342       H346 1.140       .   S
