data_nfc_v1-4c_Cu_1_Ch_1-1B_4H_Ch
_audit_creation_date              2024-08-05
_audit_creation_method            'tobacco_3.0'
_symmetry_space_group_name_H-M    'P1'
_symmetry_Int_Tables_number       1
_symmetry_cell_setting            triclinic
loop_
_symmetry_equiv_pos_as_xyz
  x,y,z
_cell_length_a                    28.515299924202665
_cell_length_b                    28.514719234378568
_cell_length_c                    19.372611009669274
_cell_angle_alpha                 90.00043406366483
_cell_angle_beta                  89.99931519421618
_cell_angle_gamma                 90.00617582075591
loop_
_atom_site_label
_atom_site_type_symbol
_atom_site_fract_x
_atom_site_fract_y
_atom_site_fract_z
_atom_site_charge
O1         O    0.9808367473    0.4256949555    0.0238335395         -1.3557
O2         O    0.0743035450    0.5191625704    0.9761666058         -1.3655
O3         O    0.0390229957    0.4838848785    0.0972759989         -1.2517
O4         O    0.0161198752    0.4609752144    0.9027153202         -1.3358
O5         O    0.9609795830    0.5161176886    0.9027151749         -1.3313
O6         O    0.9838785540    0.5390230228    0.0972704993         -1.2439
O7         O    0.0191632527    0.5743050445    0.9761664605         -1.3689
O8         O    0.9256964550    0.4808374296    0.0238333942         -1.3567
Cu9       Cu    0.0326046727    0.4673993300    0.9999996404          1.0456
Cu10      Cu    0.9673953273    0.5326006700    0.0000003596          1.0433
C11        C    0.9394846204    0.4394855446    0.0308630183          0.3063
C12        C    0.0605153796    0.5605144554    0.9691369817          0.2977
C13        C    0.0148264305    0.5148262041    0.1259576049          0.2191
C14        C    0.9851735695    0.4851737959    0.8740423951          0.2819
O15        O    0.9808408657    0.5743287869    0.4761841928         -1.3557
O16        O    0.0742995600    0.4808726812    0.5238455619         -1.3655
O17        O    0.0390214897    0.5161466083    0.4027382692         -1.2517
O18        O    0.0161215146    0.5390522930    0.5973003115         -1.3358
O19        O    0.9609762830    0.4839028705    0.5973023970         -1.3313
O20        O    0.9838721090    0.4610015150    0.4027457092         -1.2439
O21        O    0.0191543284    0.4257232586    0.5238476474         -1.3689
O22        O    0.9256956341    0.5191793643    0.4761862783         -1.3567
Cu23      Cu    0.0326051899    0.5326308014    0.5000151324          1.0456
Cu24      Cu    0.9673900042    0.4674212441    0.5000167078          1.0433
C25        C    0.9394874639    0.5605330265    0.4691565046          0.3063
C26        C    0.0605077302    0.4395190190    0.5308753356          0.2977
C27        C    0.0148219917    0.4852023947    0.3740574325          0.2191
C28        C    0.9851732023    0.5148496508    0.6259744077          0.2819
O29        O    0.5159285027    0.5759101329    0.5238425282         -1.3557
O30        O    0.4224603138    0.4824437247    0.4761775830         -1.3655
O31        O    0.4577415878    0.5177211608    0.5972862255         -1.2517
O32        O    0.4806446498    0.5406301297    0.4027250596         -1.3358
O33        O    0.5357841756    0.4854868891    0.4027217444         -1.3313
O34        O    0.5128852631    0.4625822499    0.5972775559         -1.2439
O35        O    0.4775998395    0.4273004841    0.4761742678         -1.3689
O36        O    0.5710680284    0.5207668923    0.5238392130         -1.3567
Cu37      Cu    0.4641599516    0.5342064317    0.5000099127          1.0456
Cu38      Cu    0.5293683906    0.4690041852    0.5000068833          1.0433
C39        C    0.5572804514    0.5621189826    0.5308701288          0.3063
C40        C    0.4362478907    0.4410916344    0.4691466672          0.2977
C41        C    0.4819377785    0.4867795544    0.6259663184          0.2191
C42        C    0.5115905637    0.5164310626    0.3740504776          0.2819
O43        O    0.5159184164    0.4273149529    0.9761674473         -1.3557
O44        O    0.4224645752    0.5207762554    0.0238327289         -1.3655
O45        O    0.4577411855    0.4854999949    0.9027239594         -1.2517
O46        O    0.4806392276    0.4625937803    0.0972850430         -1.3358
O47        O    0.5357874237    0.5177402384    0.0972864180         -1.3313
O48        O    0.5128935304    0.5406421235    0.9027306888         -1.2439
O49        O    0.4776127713    0.5759227135    0.0238341039         -1.3689
O50        O    0.5710666124    0.4824614109    0.9761688223         -1.3567
Cu51      Cu    0.4641562484    0.4690158074    0.0000004081          1.0456
Cu52      Cu    0.5293749393    0.5342218589    0.0000011431          1.0433
C53        C    0.5572725849    0.4411084647    0.9691388269          0.3063
C54        C    0.4362586027    0.5621292016    0.0308627243          0.2977
C55        C    0.4819424502    0.5164428042    0.8740429086          0.2191
C56        C    0.5115887374    0.4867948622    0.1259586426          0.2819
O57        O    0.6732688035    0.2715826207    0.7738323502         -1.3557
O58        O    0.7667278128    0.1781265629    0.7261667435         -1.3655
O59        O    0.7314525006    0.2134039271    0.8472756357         -1.2517
O60        O    0.7085466825    0.2363026780    0.6527146318         -1.3358
O61        O    0.7636922251    0.2914517896    0.6527125464         -1.3313
O62        O    0.7865937139    0.2685571877    0.8472681958         -1.2439
O63        O    0.8218733554    0.2332756745    0.7261646580         -1.3689
O64        O    0.7284143461    0.3267317323    0.7738302647         -1.3567
Cu65      Cu    0.7149685949    0.2198192607    0.7499992917          1.0456
Cu66      Cu    0.7801735640    0.2850390345    0.7499977165          1.0433
C67        C    0.6870621957    0.3129375739    0.7808606632          0.3063
C68        C    0.8080799632    0.1919207214    0.7191363450          0.2977
C69        C    0.7623947939    0.2376055453    0.8759563195          0.2191
C70        C    0.7327473650    0.2672527500    0.6240406887          0.2819
O71        O    0.8218701803    0.2716003216    0.2261695306         -1.3557
O72        O    0.7283999232    0.1781362529    0.2738368318         -1.3655
O73        O    0.7636785190    0.2134156787    0.1527273000         -1.2517
O74        O    0.7865890174    0.2363183172    0.3472878885         -1.3358
O75        O    0.7314503741    0.2914624403    0.3472912037         -1.3313
O76        O    0.7085442056    0.2685639511    0.1527359696         -1.2439
O77        O    0.6732612799    0.2332803760    0.2738401470         -1.3689
O78        O    0.7667315370    0.3267444447    0.2261728458         -1.3567
Cu79      Cu    0.7801641351    0.2198334112    0.2500033242          1.0456
Cu80      Cu    0.7149673251    0.2850472864    0.2500063534          1.0433
C81        C    0.8080818962    0.3129539616    0.2191415826          0.3063
C82        C    0.6870495640    0.1919267360    0.2808680950          0.2977
C83        C    0.7327389858    0.2376142300    0.1240472922          0.2191
C84        C    0.7623924744    0.2672664676    0.3759623854          0.2819
O85        O    0.6748547181    0.7300458319    0.7261784624         -1.3557
O86        O    0.7683265383    0.8235084805    0.7738439507         -1.3655
O87        O    0.7330471975    0.7882294358    0.6527351031         -1.2517
O88        O    0.7101366259    0.7653274552    0.8472961361         -1.3358
O89        O    0.7652743891    0.7101824521    0.8472962815         -1.3313
O90        O    0.7881806307    0.7330802834    0.6527406029         -1.2439
O91        O    0.8234643014    0.7683634774    0.7738440961         -1.3689
O92        O    0.7299924812    0.6749008287    0.7261786077         -1.3567
Cu93      Cu    0.7165616252    0.7818121125    0.7500116388          1.0456
Cu94      Cu    0.7817573943    0.7165971968    0.7500109197          1.0433
C95        C    0.6886423316    0.6886919612    0.7191491967          0.3063
C96        C    0.8096766879    0.8097173481    0.7808733617          0.2977
C97        C    0.7639863014    0.7640303476    0.6240534450          0.2191
C98        C    0.7343327181    0.7343789617    0.8759691134          0.2819
O99        O    0.8234689519    0.7300462699    0.2738466634         -1.3557
O100       O    0.7300075506    0.8234992568    0.2261835457         -1.3655
O101       O    0.7652830315    0.7882237858    0.3472914985         -1.2517
O102       O    0.7881909041    0.7653243192    0.1527298846         -1.3358
O103       O    0.7330469730    0.7101735962    0.1527285095         -1.3313
O104       O    0.7101434299    0.7330689139    0.3472847688         -1.2439
O105       O    0.6748636195    0.7683485337    0.2261821706         -1.3689
O106       O    0.7683250208    0.6748955469    0.2738452883         -1.3567
Cu107     Cu    0.7817678173    0.7818082414    0.2500147846          1.0456
Cu108     Cu    0.7165647540    0.7165865623    0.2500140494          1.0433
C109       C    0.8096767180    0.6886909638    0.2808749647          0.3063
C110       C    0.6886558533    0.8097038398    0.2191538693          0.2977
C111       C    0.7343412412    0.7640214677    0.3759726272          0.2191
C112       C    0.7639913302    0.7343733359    0.1240562068          0.2819
O113       O    0.5742976521    0.0191769570    0.4761734340         -1.3557
O114       O    0.4808299086    0.9257100307    0.5238392748         -1.3655
O115       O    0.5161079274    0.9609909068    0.4027302942         -1.2517
O116       O    0.5390170662    0.9838935021    0.5972912407         -1.3358
O117       O    0.4838768382    0.0390360404    0.5972945559         -1.3313
O118       O    0.4609720291    0.0161375946    0.4027389639         -1.2439
O119       O    0.4256896805    0.9808525690    0.5238425900         -1.3689
O120       O    0.5191574240    0.0743194953    0.4761767492         -1.3567
Cu121     Cu    0.5325930083    0.9674087623    0.5000064973          1.0456
Cu122     Cu    0.4673943243    0.0326207636    0.5000095267          1.0433
C123       C    0.5605082050    0.0605302259    0.4691457013          0.3063
C124       C    0.4394791276    0.9394993001    0.5308703227          0.2977
C125       C    0.4851678022    0.9851886724    0.3740502337          0.2191
C126       C    0.5148195304    0.0148408535    0.6259657903          0.2819
O127       O    0.5742867984    0.9808498479    0.0238401500         -1.3557
O128       O    0.4808308903    0.0743083445    0.9761771010         -1.3655
O129       O    0.5161043152    0.0390307765    0.0972850278         -1.2517
O130       O    0.5390108068    0.0161299944    0.9027233971         -1.3358
O131       O    0.4838636300    0.9609825170    0.9027220221         -1.3313
O132       O    0.4609614677    0.9838791499    0.0972782983         -1.2439
O133       O    0.4256837136    0.0191608671    0.9761757260         -1.3689
O134       O    0.5191396216    0.9257023704    0.0238387750         -1.3567
Cu135     Cu    0.5325887068    0.0326142782    0.0000083056          1.0456
Cu136     Cu    0.4673818051    0.9673964368    0.0000075704          1.0433
C137       C    0.5604921317    0.9394953522    0.0308684411          0.3063
C138       C    0.4394783802    0.0605153627    0.9691474349          0.2977
C139       C    0.4851611055    0.0148302747    0.1259661591          0.2191
C140       C    0.5148094064    0.9851804403    0.8740497169          0.2819
O141       O    0.2667433591    0.6781359730    0.2261669262         -1.3557
O142       O    0.1732871576    0.7715951259    0.2738313129         -1.3655
O143       O    0.2085648867    0.7363194489    0.1527228811         -1.2517
O144       O    0.2314630515    0.7134142168    0.3472841841         -1.3358
O145       O    0.2866099173    0.7685620052    0.3472855591         -1.3313
O146       O    0.2637159014    0.7914629080    0.1527296107         -1.2439
O147       O    0.2284340234    0.8267429143    0.2738326879         -1.3689
O148       O    0.3218902249    0.7332837614    0.2261683013         -1.3567
Cu149     Cu    0.2149801322    0.7198356313    0.2499994395          1.0456
Cu150     Cu    0.2801972503    0.7850432560    0.2500001747          1.0433
C151       C    0.3080972105    0.6919304670    0.2191384379          0.3063
C152       C    0.1870801720    0.8129484203    0.2808611763          0.2913
C153       C    0.2327654684    0.7672627786    0.1240417981          0.2191
C154       C    0.2624119141    0.7376161087    0.3759578161          0.2819
O155       O    0.2284079115    0.6781304165    0.7738317928         -1.3557
O156       O    0.3218721955    0.7716008889    0.7261663195         -1.3655
O157       O    0.2865922232    0.7363217465    0.8472751614         -1.2517
O158       O    0.2636904625    0.7134121260    0.6527141248         -1.3358
O159       O    0.2085485856    0.7685530154    0.6527139795         -1.3313
O160       O    0.2314461969    0.7914583060    0.8472696617         -1.2439
O161       O    0.2667303186    0.8267417783    0.7261661742         -1.3689
O162       O    0.1732660346    0.7332713059    0.7738316475         -1.3567
Cu163     Cu    0.2801747246    0.7198363644    0.7499986240          1.0456
Cu164     Cu    0.2149635055    0.7850358304    0.7499993431          1.0433
C165       C    0.1870553629    0.6919197920    0.7808610563          0.3063
C166       C    0.3080828672    0.8129524029    0.7191369107          0.2977
C167       C    0.2623946653    0.7672622733    0.8759568201          0.2191
C168       C    0.2327435647    0.7376099215    0.6240411470          0.2819
O169       O    0.2683049201    0.3235175678    0.2738531363         -1.3557
O170       O    0.1748423358    0.2300458118    0.2261870998         -1.3655
O171       O    0.2101212166    0.2653249887    0.3472961542         -1.2517
O172       O    0.2330234606    0.2882358238    0.1527352557         -1.3358
O173       O    0.2881662177    0.2330958146    0.1527319405         -1.3313
O174       O    0.2652681230    0.2101893095    0.3472874846         -1.2439
O175       O    0.2299850929    0.1749058026    0.2261837845         -1.3689
O176       O    0.3234476772    0.2683775586    0.2738498210         -1.3567
Cu177     Cu    0.2165388766    0.2818108977    0.2500199751          1.0456
Cu178     Cu    0.2817511364    0.2166124727    0.2500169457          1.0433
C179       C    0.3096576582    0.3097288217    0.2808808978          0.3063
C180       C    0.1886323548    0.1886945487    0.2191560231          0.2977
C181       C    0.2343191432    0.2343847231    0.3759762077          0.2191
C182       C    0.2639708698    0.2640386473    0.1240607132          0.2819
O183       O    0.2300307300    0.3235103516    0.7261753613         -1.3557
O184       O    0.3234839309    0.2300487363    0.7738366617         -1.3655
O185       O    0.2882079165    0.2653247607    0.6527293949         -1.2517
O186       O    0.2653093228    0.2882317603    0.8472914541         -1.3358
O187       O    0.2101608456    0.2330855834    0.8472935397         -1.3313
O188       O    0.2330552905    0.2101829132    0.6527368351         -1.2439
O189       O    0.2683354538    0.1749025593    0.7738387472         -1.3689
O190       O    0.1748822528    0.2683641746    0.7261774469         -1.3567
Cu191     Cu    0.2817926035    0.2818093150    0.7500062666          1.0456
Cu192     Cu    0.2165735802    0.2166035959    0.7500078420          1.0433
C193       C    0.1886765153    0.3097170264    0.7191476833          0.3063
C194       C    0.3096896685    0.1886958846    0.7808664253          0.2977
C195       C    0.2640065926    0.2343819762    0.6240485558          0.2191
C196       C    0.2343595912    0.2640309347    0.8759655528          0.2819
O197       O    0.0159478570    0.0758964574    0.0238424020         -1.3557
O198       O    0.9224838858    0.9824262161    0.9761758222         -1.3655
O199       O    0.9577631518    0.0177046830    0.0972850817         -1.2517
O200       O    0.9806660124    0.0406154235    0.9027243163         -1.3358
O201       O    0.0358079134    0.9854745583    0.9027210011         -1.3313
O202       O    0.0129092022    0.9625681476    0.0972764121         -1.2439
O203       O    0.9776257869    0.9272853509    0.9761725070         -1.3689
O204       O    0.0710897580    0.0207555922    0.0238390867         -1.3567
Cu205     Cu    0.9641811981    0.0341906229    0.0000089691          1.0456
Cu206     Cu    0.0293924457    0.9689911854    0.0000059398          1.0433
C207       C    0.0573003715    0.0621070600    0.0308702435          0.3063
C208       C    0.9362732723    0.9410747483    0.9691446654          0.2977
C209       C    0.9819605595    0.9867640032    0.1259651156          0.2191
C210       C    0.0116130844    0.0164178051    0.8740497934          0.2819
O211       O    0.9224659361    0.0207712132    0.5238267566         -1.3557
O212       O    0.0159273055    0.9273173051    0.4761620449         -1.3655
O213       O    0.9806508745    0.9625940859    0.5972705993         -1.2517
O214       O    0.9577449340    0.9854918540    0.4027093761         -1.3358
O215       O    0.0128891462    0.0406422959    0.4027072907         -1.3313
O216       O    0.0357907574    0.0177486766    0.5972631594         -1.2439
O217       O    0.0710715178    0.9824677470    0.4761599595         -1.3689
O218       O    0.9776101483    0.0759216551    0.5238246712         -1.3567
Cu219     Cu    0.9641670290    0.9690088068    0.4999941456          1.0456
Cu220     Cu    0.0293704248    0.0342301534    0.4999925705          1.0433
C221       C    0.9362583151    0.0621265146    0.5308549377          0.3063
C222       C    0.0572791387    0.9411124457    0.4691317784          0.2977
C223       C    0.0115925206    0.9867965138    0.6259513155          0.2191
C224       C    0.9819449332    0.0164424464    0.3740354007          0.2819
C535       C    0.9692677083    0.9773415907    0.7159287200          0.3708
C536       C    0.0115963130    0.9922592739    0.6717056500          0.3708
C537       C    0.0539314072    0.0165248428    0.7057774845          0.3708
C538       C    0.0539378967    0.0258727283    0.7840723889          0.3708
C539       C    0.0116092920    0.0109550450    0.8282954588          0.3708
C540       C    0.9692741978    0.9866894762    0.7942236244          0.3708
H541       H    0.9379287424    0.9593787670    0.6907067126          0.3708
H542       H    0.0852642297    0.0275676268    0.6730448035          0.3708
H543       H    0.0852768625    0.0438355520    0.8092943962          0.3708
H544       H    0.9379413752    0.9756466921    0.8269563053          0.3708
C525       C    0.9984573858    0.0400227700    0.1996869803          0.3708
C526       C    0.9819576780    0.9922368127    0.1717101505          0.3708
C527       C    0.9654530385    0.9538172676    0.2220234283          0.3708
C528       C    0.9654481069    0.9631836797    0.3003135359          0.3708
C529       C    0.9819478148    0.0109696369    0.3282903657          0.3708
C530       C    0.9984524542    0.0493891820    0.2779770879          0.3708
H531       H    0.0106751060    0.0684632125    0.1624420864          0.3708
H532       H    0.9532394910    0.9184450560    0.2013166705          0.3708
H533       H    0.9532303868    0.9347432371    0.3375584298          0.3708
H534       H    0.0106660017    0.0847613936    0.2986838457          0.3708
C515       C    0.1698776873    0.1058257365    0.1518571380          0.3708
C516       C    0.1548040376    0.1560883121    0.1706576229          0.3708
C517       C    0.1078927134    0.1756633799    0.1438136182          0.3708
C518       C    0.0760550390    0.1449758722    0.0981691286          0.3708
C519       C    0.0911286887    0.0947132966    0.0793686437          0.3708
C520       C    0.1380400129    0.0751382288    0.1062126484          0.3708
H521       H    0.2046042519    0.0913351019    0.1717286740          0.3708
H522       H    0.0967337669    0.2128681792    0.1577288208          0.3708
H523       H    0.0413284744    0.1594665068    0.0782975926          0.3708
H524       H    0.1491989594    0.0379334295    0.0922974458          0.3708
C505       C    0.2444847305    0.2811555692    0.4608700711          0.3708
C506       C    0.2397938115    0.2343842165    0.4217232780          0.3708
C507       C    0.2444719489    0.1876119970    0.4608655886          0.3708
C508       C    0.2538410052    0.1876111301    0.5391546923          0.3708
C509       C    0.2585319242    0.2343824828    0.5783014855          0.3708
C510       C    0.2538537868    0.2811547023    0.5391591749          0.3708
H511       H    0.2410216937    0.3157791602    0.4318945945          0.3708
H512       H    0.2409998954    0.1529905278    0.4318905102          0.3708
H513       H    0.2573040420    0.1529875390    0.5681301690          0.3708
H514       H    0.2573258403    0.3157761715    0.5681342533          0.3708
C495       C    0.2999029220    0.2640301837    0.0272468851          0.3708
C496       C    0.2585101353    0.2640372250    0.0783084909          0.3708
C497       C    0.2077724438    0.2640418324    0.0510747388          0.3708
C498       C    0.1984275390    0.2640393984    0.9727793808          0.3708
C499       C    0.2398203257    0.2640323570    0.9217177750          0.3708
C500       C    0.2905580172    0.2640277497    0.9489515271          0.3708
H501       H    0.3374619924    0.2640267730    0.0474069354          0.3708
H502       H    0.1771320445    0.2640470445    0.0888694961          0.3708
H503       H    0.1608684686    0.2640428090    0.9526193306          0.3708
H504       H    0.3211984165    0.2640225375    0.9111567698          0.3708
C485       C    0.1119247834    0.8724194176    0.2972447092          0.3708
C486       C    0.1536444331    0.8459624787    0.3293582224          0.3708
C487       C    0.1638993051    0.8505734940    0.4071099905          0.3708
C488       C    0.1324345273    0.8816414483    0.4527482455          0.3708
C489       C    0.0907148776    0.9080983873    0.4206347323          0.3708
C490       C    0.0804600057    0.9034873720    0.3428829642          0.3708
H491       H    0.1043335146    0.8690060686    0.2396882055          0.3708
H492       H    0.1947803660    0.8309903077    0.4308827594          0.3708
H493       H    0.1400257961    0.8850547974    0.5103047491          0.3708
H494       H    0.0495789447    0.9230705582    0.3191101953          0.3708
C475       C    0.2444057365    0.7205158231    0.0395348241          0.3708
C476       C    0.2382292663    0.7672626854    0.0782934709          0.3708
C477       C    0.2414035967    0.8140093883    0.0387579559          0.3708
C478       C    0.2507543972    0.8140092288    0.9604637941          0.3708
C479       C    0.2569308674    0.7672623665    0.9217051473          0.3708
C480       C    0.2537565370    0.7205156636    0.9612406623          0.3708
H481       H    0.2420559075    0.6859111210    0.0688013741          0.3708
H482       H    0.2368318959    0.8486127290    0.0674457173          0.3708
H483       H    0.2531042262    0.8486139309    0.9311972441          0.3708
H484       H    0.2583282378    0.6859123229    0.9325529009          0.3708
C465       C    0.2522600380    0.6908422057    0.4608533920          0.3708
C466       C    0.2569405854    0.7376149677    0.4217084385          0.3708
C467       C    0.2522582869    0.7843857771    0.4608545280          0.3708
C468       C    0.2428954409    0.7843838246    0.5391455710          0.3708
C469       C    0.2382148934    0.7376110626    0.5782905245          0.3708
C470       C    0.2428971920    0.6908402531    0.5391444350          0.3708
H471       H    0.2557261551    0.6562196584    0.4318751180          0.3708
H472       H    0.2557226633    0.8190082895    0.4318808114          0.3708
H473       H    0.2394293238    0.8190063718    0.5681238450          0.3708
H474       H    0.2394328156    0.6562177407    0.5681181516          0.3708
C455       C    0.3601129384    0.0736804435    0.8907320292          0.3708
C456       C    0.4060445066    0.0935349629    0.9206458095          0.3708
C457       C    0.4205155926    0.1444601431    0.9049207104          0.3708
C458       C    0.3890551103    0.1755308038    0.8592818310          0.3708
C459       C    0.3431235421    0.1556762844    0.8293680506          0.3708
C460       C    0.3286524561    0.1047511042    0.8450931497          0.3708
H461       H    0.3494005760    0.0359825828    0.9023726869          0.3708
H462       H    0.4545144342    0.1591579994    0.9270622866          0.3708
H463       H    0.3997674727    0.2132286645    0.8476411732          0.3708
H464       H    0.2946536145    0.0900532479    0.8229515735          0.3708
C445       C    0.3521594694    0.9072376241    0.5682376221          0.3708
C446       C    0.4056333029    0.9069026030    0.5793651422          0.3708
C447       C    0.4272548309    0.8758908303    0.6361311368          0.3708
C448       C    0.3954025254    0.8452140788    0.6817696113          0.3708
C449       C    0.3419286919    0.8455491000    0.6706420912          0.3708
C450       C    0.3203071639    0.8765608726    0.6138760966          0.3708
H451       H    0.3361539226    0.9301943909    0.5262160417          0.3708
H452       H    0.4668366567    0.8756418674    0.6443694841          0.3708
H453       H    0.4114080722    0.8222573120    0.7237911917          0.3708
H454       H    0.2807253381    0.8768098355    0.6056377493          0.3708
C435       C    0.4790490946    0.0410008235    0.3009766372          0.3708
C436       C    0.4851665672    0.9906548678    0.3283011537          0.3708
C437       C    0.4912819265    0.9496635178    0.2773327129          0.3708
C438       C    0.4912798131    0.9590181235    0.1990397557          0.3708
C439       C    0.4851623404    0.0093640792    0.1717152391          0.3708
C440       C    0.4790469812    0.0503554292    0.2226836799          0.3708
H441       H    0.4745221403    0.0713450696    0.3387065219          0.3708
H442       H    0.4958102515    0.9123963231    0.2975566100          0.3708
H443       H    0.4958067673    0.9286738774    0.1613098710          0.3708
H444       H    0.4745186561    0.0876226240    0.2024597829          0.3708
C425       C    0.5586837680    0.0206712916    0.7150043503          0.3708
C426       C    0.5148176634    0.0093710164    0.6717162887          0.3708
C427       C    0.4709483638    0.9887103717    0.7067196919          0.3708
C428       C    0.4709451688    0.9793500022    0.7850111568          0.3708
C429       C    0.5148112734    0.9906502775    0.8282992185          0.3708
C430       C    0.5586805731    0.0113109222    0.7932958152          0.3708
H431       H    0.5911584444    0.0359655351    0.6890927401          0.3708
H432       H    0.4384774407    0.9803452942    0.6746791303          0.3708
H433       H    0.4384704925    0.9640557588    0.8109227670          0.3708
H434       H    0.5911514962    0.0196759996    0.8253363769          0.3708
C415       C    0.6096373381    0.8634554271    0.1996228172          0.3708
C416       C    0.6556414668    0.8431375378    0.1706524071          0.3708
C417       C    0.6705781213    0.8542817067    0.0960407451          0.3708
C418       C    0.6395106470    0.8857437649    0.0503994932          0.3708
C419       C    0.5935065182    0.9060616543    0.0793699034          0.3708
C420       C    0.5785698638    0.8949174854    0.1539815654          0.3708
H421       H    0.5985803341    0.8552058476    0.2548548268          0.3708
H422       H    0.7046306866    0.8392428299    0.0745945892          0.3708
H423       H    0.6505676509    0.8939933445    0.9951674837          0.3708
H424       H    0.5445172985    0.9099563622    0.1754277212          0.3708
C405       C    0.8829716952    0.8223817343    0.8713411575          0.3708
C406       C    0.8422872425    0.8435542615    0.8293709706          0.3708
C407       C    0.8322905274    0.8965685755    0.8330388266          0.3708
C408       C    0.8629782650    0.9284103621    0.8786768696          0.3708
C409       C    0.9036627177    0.9072378348    0.9206470566          0.3708
C410       C    0.9136594328    0.8542235209    0.9169792005          0.3708
H411       H    0.8903718609    0.7831373720    0.8686259914          0.3708
H412       H    0.8021757238    0.9122420827    0.8019727595          0.3708
H413       H    0.8555780993    0.9676547244    0.8813920358          0.3708
H414       H    0.9437742364    0.8385500137    0.9480452677          0.3708
C395       C    0.7538173805    0.7172555270    0.5391664475          0.3708
C396       C    0.7585195420    0.7640287100    0.5783055824          0.3708
C397       C    0.7538659329    0.8107990907    0.5391521710          0.3708
C398       C    0.7445101622    0.8107962883    0.4608596247          0.3708
C399       C    0.7398080006    0.7640231052    0.4217204899          0.3708
C400       C    0.7444616098    0.7172527245    0.4608739013          0.3708
H401       H    0.7572622600    0.6826332971    0.5681501417          0.3708
H402       H    0.7573463089    0.8454219147    0.5681215804          0.3708
H403       H    0.7410652826    0.8454185181    0.4318759306          0.3708
H404       H    0.7409812338    0.6826299005    0.4319044919          0.3708
C385       C    0.7444662905    0.6876052517    0.9608678327          0.3708
C386       C    0.7398023346    0.7343779242    0.9217211288          0.3708
C387       C    0.7444980683    0.7811488214    0.9608659563          0.3708
C388       C    0.7538577578    0.7811470460    0.0391574875          0.3708
C389       C    0.7585217136    0.7343743734    0.0783041914          0.3708
C390       C    0.7538259800    0.6876034763    0.0391593639          0.3708
H391       H    0.7409902279    0.6529826395    0.9318904929          0.3708
H392       H    0.7410459733    0.8157712675    0.9318909440          0.3708
H393       H    0.7573338203    0.8157696582    0.0681348273          0.3708
H394       H    0.7572780749    0.6529810301    0.0681343762          0.3708
C375       C    0.6007075729    0.1633158579    0.3282572387          0.3708
C376       C    0.6544541228    0.1580806698    0.3293660066          0.3708
C377       C    0.6775254343    0.1209932928    0.3761156661          0.3708
C378       C    0.6468501960    0.0891411040    0.4217565576          0.3708
C379       C    0.5931036462    0.0943762921    0.4206477897          0.3708
C380       C    0.5700323346    0.1314636691    0.3738981302          0.3708
H381       H    0.5836288098    0.1907701500    0.2936503479          0.3708
H382       H    0.7173091696    0.1171170514    0.3769378517          0.3708
H383       H    0.6639289591    0.0616868119    0.4563634484          0.3708
H384       H    0.5302485993    0.1353399105    0.3730759446          0.3708
C365       C    0.8652460972    0.1266158907    0.5461602142          0.3708
C366       C    0.9032393886    0.0955616876    0.5793564971          0.3708
C367       C    0.9101624305    0.0959694149    0.6581919242          0.3708
C368       C    0.8790921811    0.1274313453    0.7038310684          0.3708
C369       C    0.8410988897    0.1584855483    0.6706347856          0.3708
C370       C    0.8341758478    0.1580778210    0.5917993585          0.3708
H371       H    0.8601212480    0.1263140666    0.4878015214          0.3708
H372       H    0.9382851489    0.0729832171    0.6827661898          0.3708
H373       H    0.8842170303    0.1277331694    0.7621897612          0.3708
H374       H    0.8060531294    0.1810640189    0.5672250929          0.3708
C355       C    0.7983093882    0.2376050693    0.9727856783          0.3708
C356       C    0.7569256172    0.2376071469    0.9217096961          0.3708
C357       C    0.7061831189    0.2376119653    0.9489258237          0.3708
C358       C    0.6968243915    0.2376147060    0.0272179334          0.3708
C359       C    0.7382081624    0.2376126284    0.0782939156          0.3708
C360       C    0.7889506608    0.2376078100    0.0510777880          0.3708
H361       H    0.8358720168    0.2376015025    0.9526386748          0.3708
H362       H    0.6755493928    0.2376135033    0.9111204245          0.3708
H363       H    0.6592617628    0.2376182728    0.0473649369          0.3708
H364       H    0.8195843868    0.2376062720    0.0888831872          0.3708
C345       C    0.7428743993    0.3140292248    0.5391472810          0.3708
C346       C    0.7382140039    0.2672552795    0.5782943747          0.3708
C347       C    0.7429095243    0.2204856635    0.5391486308          0.3708
C348       C    0.7522654402    0.2204899927    0.4608557931          0.3708
C349       C    0.7569258356    0.2672639380    0.4217086994          0.3708
C350       C    0.7522303152    0.3140335540    0.4608544433          0.3708
H351       H    0.7393984946    0.3486508886    0.5681252992          0.3708
H352       H    0.7394600647    0.1858622753    0.5681239316          0.3708
H353       H    0.7557413449    0.1858683289    0.4318777749          0.3708
H354       H    0.7556797747    0.3486569422    0.4318791425          0.3708
C335       C    0.3571044764    0.5762665059    0.1093669030          0.3708
C336       C    0.4032451418    0.5955650821    0.0793612057          0.3708
C337       C    0.4183185721    0.6463284105    0.0949948838          0.3708
C338       C    0.3872513369    0.6777931627    0.1406342592          0.3708
C339       C    0.3411106714    0.6584945865    0.1706399564          0.3708
C340       C    0.3260372411    0.6077312580    0.1550062783          0.3708
H341       H    0.3459462228    0.5386884575    0.0977939205          0.3708
H342       H    0.4524722057    0.6606147546    0.0727852682          0.3708
H343       H    0.3984095904    0.7153712110    0.1522072417          0.3708
H344       H    0.2918836075    0.5934449139    0.1772158940          0.3708
C325       C    0.6444034224    0.4134878495    0.9236575792          0.3708
C326       C    0.5907054159    0.4080926039    0.9206397831          0.3708
C327       C    0.5684693838    0.3716277736    0.8719819490          0.3708
C328       C    0.5999313582    0.3405581891    0.8263419110          0.3708
C329       C    0.6536293648    0.3459534347    0.8293597071          0.3708
C330       C    0.6758653968    0.3824182650    0.8780175412          0.3708
H331       H    0.6608638618    0.4404812953    0.9596770148          0.3708
H332       H    0.5287216065    0.3676330779    0.8697466472          0.3708
H333       H    0.5834709189    0.3135647433    0.7903224754          0.3708
H334       H    0.7156131741    0.3864129607    0.8802528430          0.3708
C315       C    0.4208875349    0.3578563730    0.4009544038          0.3708
C316       C    0.4036393272    0.4072536950    0.4206510118          0.3708
C317       C    0.3557045668    0.4248075500    0.3947103905          0.3708
C318       C    0.3250180140    0.3929640831    0.3490731612          0.3708
C319       C    0.3422662217    0.3435667611    0.3293765532          0.3708
C320       C    0.3902009822    0.3260129061    0.3553171745          0.3708
H321       H    0.4563717083    0.3448619608    0.4201572013          0.3708
H322       H    0.3429359878    0.4613718278    0.4092889288          0.3708
H323       H    0.2895338407    0.4059584953    0.3298703637          0.3708
H324       H    0.4029695612    0.2894486283    0.3407386362          0.3708
C305       C    0.6309757486    0.6234987349    0.5464461543          0.3708
C306       C    0.5911174362    0.5947224133    0.5793681859          0.3708
C307       C    0.5831030791    0.5966291503    0.6579316944          0.3708
C308       C    0.6149470344    0.6273122089    0.7035731713          0.3708
C309       C    0.6548053468    0.6560885305    0.6706511397          0.3708
C310       C    0.6628197039    0.6541817935    0.5920876312          0.3708
H311       H    0.6369084546    0.6220872542    0.4882887519          0.3708
H312       H    0.5535998443    0.5753290797    0.6823029515          0.3708
H313       H    0.6090143285    0.6287236896    0.7617305737          0.3708
H314       H    0.6923229387    0.6754818642    0.5677163741          0.3708
C295       C    0.4654346578    0.4988352963    0.2910797555          0.3708
C296       C    0.5115902269    0.5109656548    0.3282982214          0.3708
C297       C    0.5577452197    0.5137433209    0.2872230260          0.3708
C298       C    0.5577446433    0.5043906284    0.2089293647          0.3708
C299       C    0.5115890742    0.4922602699    0.1717108989          0.3708
C300       C    0.4654340814    0.4894826039    0.2127860942          0.3708
H301       H    0.4312679748    0.4967791020    0.3214860690          0.3708
H302       H    0.5919108686    0.5227222570    0.3147707023          0.3708
H303       H    0.5919113263    0.5064468228    0.1785230513          0.3708
H304       H    0.4312684325    0.4805036677    0.1852384180          0.3708
C285       C    0.4366423215    0.4948204049    0.7921223877          0.3708
C286       C    0.4819415887    0.5109727097    0.8282959864          0.3708
C287       C    0.5272393816    0.5177634841    0.7861782122          0.3708
C288       C    0.5272379072    0.5084019536    0.7078868393          0.3708
C289       C    0.4819386400    0.4922496488    0.6717132406          0.3708
C290       C    0.4366408472    0.4854588745    0.7138310148          0.3708
H291       H    0.4031101892    0.4897934680    0.8233004803          0.3708
H292       H    0.5607711717    0.5297195776    0.8129524485          0.3708
H293       H    0.5607700396    0.5134288905    0.6767087467          0.3708
H294       H    0.4031090570    0.4735027810    0.6870567785          0.3708
C275       C    0.0961935312    0.3529876138    0.5653581825          0.3708
C276       C    0.0935239673    0.4060820682    0.5793742307          0.3708
C277       C    0.1219225589    0.4277124771    0.6390275577          0.3708
C278       C    0.1529907143    0.3962484316    0.6846648364          0.3708
C279       C    0.1556602782    0.3431539772    0.6706487882          0.3708
C280       C    0.1272616866    0.3215235683    0.6109954612          0.3708
H281       H    0.0751711972    0.3369754930    0.5211992262          0.3708
H282       H    0.1199474559    0.4670134881    0.6494040746          0.3708
H283       H    0.1740130483    0.4122605524    0.7288237927          0.3708
H284       H    0.1292367896    0.2822225573    0.6006189443          0.3708
C265       C    0.8775873688    0.5714874078    0.3614057934          0.3708
C266       C    0.9060479069    0.5935468161    0.4206547319          0.3708
C267       C    0.9030426290    0.6466714034    0.4342646731          0.3708
C268       C    0.8715768131    0.6777365825    0.3886256758          0.3708
C269       C    0.8431162750    0.6556771742    0.3293767373          0.3708
C270       C    0.8461215529    0.6025525869    0.3157667961          0.3708
H271       H    0.8798120550    0.5321614146    0.3513309019          0.3708
H272       H    0.9241089231    0.6630013802    0.4781209575          0.3708
H273       H    0.8693521269    0.7170625757    0.3987005673          0.3708
H274       H    0.8250552588    0.5862226101    0.2719105117          0.3708
C255       C    0.0723812907    0.6167190201    0.8550240411          0.3708
C256       C    0.0931109853    0.5943633340    0.9206387311          0.3708
C257       C    0.1445150658    0.6038614376    0.9406137091          0.3708
C258       C    0.1751894518    0.6357152273    0.8949739970          0.3708
C259       C    0.1544597572    0.6580709134    0.8293593069          0.3708
C260       C    0.1030556767    0.6485728097    0.8093843289          0.3708
H261       H    0.0343289193    0.6096879563    0.8402373691          0.3708
H262       H    0.1598607389    0.5873141388    0.9891821016          0.3708
H263       H    0.2132418232    0.6427462910    0.9097606689          0.3708
H264       H    0.0877100036    0.6651201085    0.7608159364          0.3708
C245       C    0.8820645691    0.3229271655    0.1291645305          0.3708
C246       C    0.8419293553    0.3455466845    0.1706437219          0.3708
C247       C    0.8336480446    0.3988392721    0.1664814919          0.3708
C248       C    0.8655019475    0.4295123407    0.1208400704          0.3708
C249       C    0.9056371613    0.4068928217    0.0793608790          0.3708
C250       C    0.9139184721    0.3536002341    0.0835231090          0.3708
H251       H    0.8881948901    0.2834768084    0.1322456618          0.3708
H252       H    0.8039398399    0.4155838463    0.1971841103          0.3708
H253       H    0.8593716265    0.4689626978    0.1177589391          0.3708
H254       H    0.9436266767    0.3368556599    0.0528204906          0.3708
C235       C    0.9410913748    0.4799311875    0.7851637704          0.3708
C236       C    0.9851735018    0.4906460436    0.8282984903          0.3708
C237       C    0.0292555129    0.5107265795    0.7931431212          0.3708
C238       C    0.0292553970    0.5200922592    0.7148530323          0.3708
C239       C    0.9851732700    0.5093774030    0.6717183124          0.3708
C240       C    0.9410912589    0.4892968672    0.7068736815          0.3708
H241       H    0.9084592367    0.4650663753    0.8111878748          0.3708
H242       H    0.0618863417    0.5186583134    0.8250701750          0.3708
H243       H    0.0618875352    0.5349570714    0.6888289279          0.3708
H244       H    0.9084604301    0.4813651333    0.6749466277          0.3708
C225       C    0.0547663476    0.4807244536    0.2046614459          0.3708
C226       C    0.0148256119    0.5093628823    0.1717130026          0.3708
C227       C    0.9748834754    0.5286527281    0.2170590754          0.3708
C228       C    0.9748820747    0.5193041452    0.2953535915          0.3708
C229       C    0.0148228104    0.4906657165    0.3283020348          0.3708
C230       C    0.0547649468    0.4713758707    0.2829559620          0.3708
H231       H    0.0843339031    0.4664449574    0.1710935739          0.3708
H232       H    0.9453182208    0.5498514017    0.1926721898          0.3708
H233       H    0.9453145191    0.5335836414    0.3289214635          0.3708
H234       H    0.0843302015    0.4501771971    0.3073428476          0.3708
loop_
_geom_bond_atom_site_label_1
_geom_bond_atom_site_label_2
_geom_bond_distance
_geom_bond_site_symmetry_2
_ccdc_geom_bond_type
O1          Cu9 1.951       .   S
O1          C11 1.250       .   A
O2          Cu9 1.951       .   S
O2          C12 1.250       .   A
O3          Cu9 1.951       .   S
O3          C13 1.250       .   A
O4          Cu9 1.951       .   S
O4          C14 1.250       .   A
O5         Cu10 1.951       .   S
O5          C14 1.250       .   A
O6         Cu10 1.951       .   S
O6          C13 1.251       .   A
O7         Cu10 1.951       .   S
O7          C12 1.250       .   A
O8         Cu10 1.951       .   S
O8          C11 1.250       .   A
Cu9        Cu10 2.630       .   S
C11        C249 1.636       .   S
C12        C256 1.636       .   S
C13        C226 0.900       .   S
C14        C236 0.900       .   S
O15        Cu23 1.951       .   S
O15         C25 1.250       .   A
O16        Cu23 1.951       .   S
O16         C26 1.250       .   A
O17        Cu23 1.951       .   S
O17         C27 1.250       .   A
O18        Cu23 1.951       .   S
O18         C28 1.250       .   A
O19        Cu24 1.951       .   S
O19         C28 1.250       .   A
O20        Cu24 1.951       .   S
O20         C27 1.251       .   A
O21        Cu24 1.951       .   S
O21         C26 1.250       .   A
O22        Cu24 1.951       .   S
O22         C25 1.250       .   A
Cu23       Cu24 2.630       .   S
C25        C266 1.637       .   S
C26        C276 1.637       .   S
C27        C229 0.900   1_655   S
C28        C239 0.900   1_656   S
O29        Cu37 1.951       .   S
O29         C39 1.250       .   A
O30        Cu37 1.951       .   S
O30         C40 1.250       .   A
O31        Cu37 1.951       .   S
O31         C41 1.250       .   A
O32        Cu37 1.951       .   S
O32         C42 1.250       .   A
O33        Cu38 1.951       .   S
O33         C42 1.250       .   A
O34        Cu38 1.951       .   S
O34         C41 1.251       .   A
O35        Cu38 1.951       .   S
O35         C40 1.250       .   A
O36        Cu38 1.951       .   S
O36         C39 1.250       .   A
Cu37       Cu38 2.630       .   S
C39        C306 1.636       .   S
C40        C316 1.636       .   S
C41        C289 0.900       .   S
C42        C296 0.900       .   S
O43        Cu51 1.951       .   S
O43         C53 1.250       .   A
O44        Cu51 1.951       .   S
O44         C54 1.250       .   A
O45        Cu51 1.951       .   S
O45         C55 1.250       .   A
O46        Cu51 1.951       .   S
O46         C56 1.250       .   A
O47        Cu52 1.951       .   S
O47         C56 1.250       .   A
O48        Cu52 1.951       .   S
O48         C55 1.251       .   A
O49        Cu52 1.951       .   S
O49         C54 1.250       .   A
O50        Cu52 1.951       .   S
O50         C53 1.250       .   A
Cu51       Cu52 2.630       .   S
C53        C326 1.636       .   S
C54        C336 1.636       .   S
C55        C286 0.900   1_554   S
C56        C299 0.900       .   S
O57        Cu65 1.951       .   S
O57         C67 1.250       .   A
O58        Cu65 1.951       .   S
O58         C68 1.250       .   A
O59        Cu65 1.951       .   S
O59         C69 1.250       .   A
O60        Cu65 1.951       .   S
O60         C70 1.250       .   A
O61        Cu66 1.951       .   S
O61         C70 1.250       .   A
O62        Cu66 1.951       .   S
O62         C69 1.251       .   A
O63        Cu66 1.951       .   S
O63         C68 1.250       .   A
O64        Cu66 1.951       .   S
O64         C67 1.250       .   A
Cu65       Cu66 2.630       .   S
C67        C329 1.636   1_556   S
C68        C369 1.637       .   S
C69        C356 0.900       .   S
C70        C346 0.900       .   S
O71        Cu79 1.951       .   S
O71         C81 1.250       .   A
O72        Cu79 1.951       .   S
O72         C82 1.250       .   A
O73        Cu79 1.951       .   S
O73         C83 1.250       .   A
O74        Cu79 1.951       .   S
O74         C84 1.250       .   A
O75        Cu80 1.951       .   S
O75         C84 1.250       .   A
O76        Cu80 1.951       .   S
O76         C83 1.251       .   A
O77        Cu80 1.951       .   S
O77         C82 1.250       .   A
O78        Cu80 1.951       .   S
O78         C81 1.250       .   A
Cu79       Cu80 2.630       .   S
C81        C246 1.636   1_655   S
C82        C376 1.636       .   S
C83        C359 0.900   1_554   S
C84        C349 0.900       .   S
O85        Cu93 1.951       .   S
O85         C95 1.250       .   A
O86        Cu93 1.951       .   S
O86         C96 1.250       .   A
O87        Cu93 1.951       .   S
O87         C97 1.250       .   A
O88        Cu93 1.951       .   S
O88         C98 1.250       .   A
O89        Cu94 1.951       .   S
O89         C98 1.250       .   A
O90        Cu94 1.951       .   S
O90         C97 1.251       .   A
O91        Cu94 1.951       .   S
O91         C96 1.250       .   A
O92        Cu94 1.951       .   S
O92         C95 1.250       .   A
Cu93       Cu94 2.630       .   S
C95        C309 1.636       .   S
C96        C406 1.637       .   S
C97        C396 0.900       .   S
C98        C386 0.900       .   S
O99       Cu107 1.951       .   S
O99        C109 1.250       .   A
O100      Cu107 1.951       .   S
O100       C110 1.250       .   A
O101      Cu107 1.951       .   S
O101       C111 1.250       .   A
O102      Cu107 1.951       .   S
O102       C112 1.250       .   A
O103      Cu108 1.951       .   S
O103       C112 1.250       .   A
O104      Cu108 1.951       .   S
O104       C111 1.251       .   A
O105      Cu108 1.951       .   S
O105       C110 1.250       .   A
O106      Cu108 1.951       .   S
O106       C109 1.250       .   A
Cu107     Cu108 2.630       .   S
C109       C269 1.637       .   S
C110       C416 1.637       .   S
C111       C399 0.900       .   S
C112       C389 0.900   1_554   S
O113      Cu121 1.951       .   S
O113       C123 1.250       .   A
O114      Cu121 1.951       .   S
O114       C124 1.250       .   A
O115      Cu121 1.951       .   S
O115       C125 1.250       .   A
O116      Cu121 1.951       .   S
O116       C126 1.250       .   A
O117      Cu122 1.951       .   S
O117       C126 1.250       .   A
O118      Cu122 1.951       .   S
O118       C125 1.251       .   A
O119      Cu122 1.951       .   S
O119       C124 1.250       .   A
O120      Cu122 1.951       .   S
O120       C123 1.250       .   A
Cu121     Cu122 2.630       .   S
C123       C379 1.636       .   S
C124       C446 1.636       .   S
C125       C436 0.900       .   S
C126       C426 0.900       .   S
O127      Cu135 1.951       .   S
O127       C137 1.250       .   A
O128      Cu135 1.951       .   S
O128       C138 1.250       .   A
O129      Cu135 1.951       .   S
O129       C139 1.250       .   A
O130      Cu135 1.951       .   S
O130       C140 1.250       .   A
O131      Cu136 1.951       .   S
O131       C140 1.250       .   A
O132      Cu136 1.951       .   S
O132       C139 1.251       .   A
O133      Cu136 1.951       .   S
O133       C138 1.250       .   A
O134      Cu136 1.951       .   S
O134       C137 1.250       .   A
Cu135     Cu136 2.630       .   S
C137       C419 1.637   1_545   S
C138       C456 1.637       .   S
C139       C439 0.900       .   S
C140       C429 0.900   1_554   S
O141      Cu149 1.951       .   S
O141       C151 1.250       .   A
O142      Cu149 1.951       .   S
O142       C152 1.250       .   A
O143      Cu149 1.951       .   S
O143       C153 1.250       .   A
O144      Cu149 1.951       .   S
O144       C154 1.250       .   A
O145      Cu150 1.951       .   S
O145       C154 1.250       .   A
O146      Cu150 1.951       .   S
O146       C153 1.251       .   A
O147      Cu150 1.951       .   S
O147       C152 1.250       .   A
O148      Cu150 1.951       .   S
O148       C151 1.250       .   A
Cu149     Cu150 2.630       .   S
C151       C339 1.636       .   S
C152       C486 1.636       .   S
C153       C476 0.900       .   S
C154       C466 0.900       .   S
O155      Cu163 1.951       .   S
O155       C165 1.250       .   A
O156      Cu163 1.951       .   S
O156       C166 1.250       .   A
O157      Cu163 1.951       .   S
O157       C167 1.250       .   A
O158      Cu163 1.951       .   S
O158       C168 1.250       .   A
O159      Cu164 1.951       .   S
O159       C168 1.250       .   A
O160      Cu164 1.951       .   S
O160       C167 1.251       .   A
O161      Cu164 1.951       .   S
O161       C166 1.250       .   A
O162      Cu164 1.951       .   S
O162       C165 1.250       .   A
Cu163     Cu164 2.630       .   S
C165       C259 1.636   1_556   S
C166       C449 1.636   1_565   S
C167       C479 0.900   1_556   S
C168       C469 0.900       .   S
O169      Cu177 1.951       .   S
O169       C179 1.250       .   A
O170      Cu177 1.951       .   S
O170       C180 1.250       .   A
O171      Cu177 1.951       .   S
O171       C181 1.250       .   A
O172      Cu177 1.951       .   S
O172       C182 1.250       .   A
O173      Cu178 1.951       .   S
O173       C182 1.250       .   A
O174      Cu178 1.951       .   S
O174       C181 1.251       .   A
O175      Cu178 1.951       .   S
O175       C180 1.250       .   A
O176      Cu178 1.951       .   S
O176       C179 1.250       .   A
Cu177     Cu178 2.630       .   S
C179       C319 1.636       .   S
C180       C516 1.636       .   S
C181       C506 0.900       .   S
C182       C496 0.900       .   S
O183      Cu191 1.951       .   S
O183       C193 1.250       .   A
O184      Cu191 1.951       .   S
O184       C194 1.250       .   A
O185      Cu191 1.951       .   S
O185       C195 1.250       .   A
O186      Cu191 1.951       .   S
O186       C196 1.250       .   A
O187      Cu192 1.951       .   S
O187       C196 1.250       .   A
O188      Cu192 1.951       .   S
O188       C195 1.251       .   A
O189      Cu192 1.951       .   S
O189       C194 1.250       .   A
O190      Cu192 1.951       .   S
O190       C193 1.250       .   A
Cu191     Cu192 2.630       .   S
C193       C279 1.637   1_455   S
C194       C459 1.637   1_556   S
C195       C509 0.900       .   S
C196       C499 0.900   1_556   S
O197      Cu205 1.951       .   S
O197       C207 1.250       .   A
O198      Cu205 1.951       .   S
O198       C208 1.250       .   A
O199      Cu205 1.951       .   S
O199       C209 1.250       .   A
O200      Cu205 1.951       .   S
O200       C210 1.250       .   A
O201      Cu206 1.951       .   S
O201       C210 1.250       .   A
O202      Cu206 1.951       .   S
O202       C209 1.251       .   A
O203      Cu206 1.951       .   S
O203       C208 1.250       .   A
O204      Cu206 1.951       .   S
O204       C207 1.250       .   A
Cu205     Cu206 2.630       .   S
C207       C519 1.636   1_655   S
C208       C409 1.637   1_544   S
C209       C526 0.900       .   S
C210       C539 0.900       .   S
O211      Cu219 1.951       .   S
O211       C221 1.250       .   A
O212      Cu219 1.951       .   S
O212       C222 1.250       .   A
O213      Cu219 1.951       .   S
O213       C223 1.250       .   A
O214      Cu219 1.951       .   S
O214       C224 1.250       .   A
O215      Cu220 1.951       .   S
O215       C224 1.250       .   A
O216      Cu220 1.951       .   S
O216       C223 1.251       .   A
O217      Cu220 1.951       .   S
O217       C222 1.250       .   A
O218      Cu220 1.951       .   S
O218       C221 1.250       .   A
Cu219     Cu220 2.630       .   S
C221       C366 1.637       .   S
C222       C489 1.636   1_645   S
C223       C536 0.900   1_556   S
C224       C529 0.900       .   S
C535       C536 1.540       .   A
C535       C540 1.540       .   A
C535       H541 1.140       .   S
C536       C537 1.540       .   A
C537       C538 1.540       .   A
C537       H542 1.140       .   S
C538       C539 1.540       .   A
C538       H543 1.140       .   S
C539       C540 1.540       .   A
C540       H544 1.140       .   S
C525       C526 1.540       .   A
C525       C530 1.540       .   A
C525       H531 1.140       .   S
C526       C527 1.540       .   A
C527       C528 1.540       .   A
C527       H532 1.140       .   S
C528       C529 1.540       .   A
C528       H533 1.140       .   S
C529       C530 1.540       .   A
C530       H534 1.140       .   S
C515       C516 1.540       .   A
C515       C520 1.540       .   A
C515       H521 1.140       .   S
C516       C517 1.540       .   A
C517       C518 1.540       .   A
C517       H522 1.140       .   S
C518       C519 1.540       .   A
C518       H523 1.140       .   S
C519       C520 1.540       .   A
C520       H524 1.140       .   S
C505       C506 1.540       .   A
C505       C510 1.540       .   A
C505       H511 1.140       .   S
C506       C507 1.540       .   A
C507       C508 1.540       .   A
C507       H512 1.140       .   S
C508       C509 1.540       .   A
C508       H513 1.140       .   S
C509       C510 1.540       .   A
C510       H514 1.140       .   S
C495       C496 1.540       .   A
C495       C500 1.540       .   A
C495       H501 1.140       .   S
C496       C497 1.540       .   A
C497       C498 1.540       .   A
C497       H502 1.140       .   S
C498       C499 1.540       .   A
C498       H503 1.140       .   S
C499       C500 1.540       .   A
C500       H504 1.140       .   S
C485       C486 1.540       .   A
C485       C490 1.540       .   A
C485       H491 1.140       .   S
C486       C487 1.540       .   A
C487       C488 1.540       .   A
C487       H492 1.140       .   S
C488       C489 1.540       .   A
C488       H493 1.140       .   S
C489       C490 1.540       .   A
C490       H494 1.140       .   S
C475       C476 1.540       .   A
C475       C480 1.540       .   A
C475       H481 1.140       .   S
C476       C477 1.540       .   A
C477       C478 1.540       .   A
C477       H482 1.140       .   S
C478       C479 1.540       .   A
C478       H483 1.140       .   S
C479       C480 1.540       .   A
C480       H484 1.140       .   S
C465       C466 1.540       .   A
C465       C470 1.540       .   A
C465       H471 1.140       .   S
C466       C467 1.540       .   A
C467       C468 1.540       .   A
C467       H472 1.140       .   S
C468       C469 1.540       .   A
C468       H473 1.140       .   S
C469       C470 1.540       .   A
C470       H474 1.140       .   S
C455       C456 1.540       .   A
C455       C460 1.540       .   A
C455       H461 1.140       .   S
C456       C457 1.540       .   A
C457       C458 1.540       .   A
C457       H462 1.140       .   S
C458       C459 1.540       .   A
C458       H463 1.140       .   S
C459       C460 1.540       .   A
C460       H464 1.140       .   S
C445       C446 1.540       .   A
C445       C450 1.540       .   A
C445       H451 1.140       .   S
C446       C447 1.540       .   A
C447       C448 1.540       .   A
C447       H452 1.140       .   S
C448       C449 1.540       .   A
C448       H453 1.140       .   S
C449       C450 1.540       .   A
C450       H454 1.140       .   S
C435       C436 1.540       .   A
C435       C440 1.540       .   A
C435       H441 1.140       .   S
C436       C437 1.540       .   A
C437       C438 1.540       .   A
C437       H442 1.140       .   S
C438       C439 1.540       .   A
C438       H443 1.140       .   S
C439       C440 1.540       .   A
C440       H444 1.140       .   S
C425       C426 1.540       .   A
C425       C430 1.540       .   A
C425       H431 1.140       .   S
C426       C427 1.540       .   A
C427       C428 1.540       .   A
C427       H432 1.140       .   S
C428       C429 1.540       .   A
C428       H433 1.140       .   S
C429       C430 1.540       .   A
C430       H434 1.140       .   S
C415       C416 1.540       .   A
C415       C420 1.540       .   A
C415       H421 1.140       .   S
C416       C417 1.540       .   A
C417       C418 1.540       .   A
C417       H422 1.140       .   S
C418       C419 1.540       .   A
C418       H423 1.140       .   S
C419       C420 1.540       .   A
C420       H424 1.140       .   S
C405       C406 1.540       .   A
C405       C410 1.540       .   A
C405       H411 1.140       .   S
C406       C407 1.540       .   A
C407       C408 1.540       .   A
C407       H412 1.140       .   S
C408       C409 1.540       .   A
C408       H413 1.140       .   S
C409       C410 1.540       .   A
C410       H414 1.140       .   S
C395       C396 1.540       .   A
C395       C400 1.540       .   A
C395       H401 1.140       .   S
C396       C397 1.540       .   A
C397       C398 1.540       .   A
C397       H402 1.140       .   S
C398       C399 1.540       .   A
C398       H403 1.140       .   S
C399       C400 1.540       .   A
C400       H404 1.140       .   S
C385       C386 1.540       .   A
C385       C390 1.540       .   A
C385       H391 1.140       .   S
C386       C387 1.540       .   A
C387       C388 1.540       .   A
C387       H392 1.140       .   S
C388       C389 1.540       .   A
C388       H393 1.140       .   S
C389       C390 1.540       .   A
C390       H394 1.140       .   S
C375       C376 1.540       .   A
C375       C380 1.540       .   A
C375       H381 1.140       .   S
C376       C377 1.540       .   A
C377       C378 1.540       .   A
C377       H382 1.140       .   S
C378       C379 1.540       .   A
C378       H383 1.140       .   S
C379       C380 1.540       .   A
C380       H384 1.140       .   S
C365       C366 1.540       .   A
C365       C370 1.540       .   A
C365       H371 1.140       .   S
C366       C367 1.540       .   A
C367       C368 1.540       .   A
C367       H372 1.140       .   S
C368       C369 1.540       .   A
C368       H373 1.140       .   S
C369       C370 1.540       .   A
C370       H374 1.140       .   S
C355       C356 1.540       .   A
C355       C360 1.540       .   A
C355       H361 1.140       .   S
C356       C357 1.540       .   A
C357       C358 1.540       .   A
C357       H362 1.140       .   S
C358       C359 1.540       .   A
C358       H363 1.140       .   S
C359       C360 1.540       .   A
C360       H364 1.140       .   S
C345       C346 1.540       .   A
C345       C350 1.540       .   A
C345       H351 1.140       .   S
C346       C347 1.540       .   A
C347       C348 1.540       .   A
C347       H352 1.140       .   S
C348       C349 1.540       .   A
C348       H353 1.140       .   S
C349       C350 1.540       .   A
C350       H354 1.140       .   S
C335       C336 1.540       .   A
C335       C340 1.540       .   A
C335       H341 1.140       .   S
C336       C337 1.540       .   A
C337       C338 1.540       .   A
C337       H342 1.140       .   S
C338       C339 1.540       .   A
C338       H343 1.140       .   S
C339       C340 1.540       .   A
C340       H344 1.140       .   S
C325       C326 1.540       .   A
C325       C330 1.540       .   A
C325       H331 1.140       .   S
C326       C327 1.540       .   A
C327       C328 1.540       .   A
C327       H332 1.140       .   S
C328       C329 1.540       .   A
C328       H333 1.140       .   S
C329       C330 1.540       .   A
C330       H334 1.140       .   S
C315       C316 1.540       .   A
C315       C320 1.540       .   A
C315       H321 1.140       .   S
C316       C317 1.540       .   A
C317       C318 1.540       .   A
C317       H322 1.140       .   S
C318       C319 1.540       .   A
C318       H323 1.140       .   S
C319       C320 1.540       .   A
C320       H324 1.140       .   S
C305       C306 1.540       .   A
C305       C310 1.540       .   A
C305       H311 1.140       .   S
C306       C307 1.540       .   A
C307       C308 1.540       .   A
C307       H312 1.140       .   S
C308       C309 1.540       .   A
C308       H313 1.140       .   S
C309       C310 1.540       .   A
C310       H314 1.140       .   S
C295       C296 1.540       .   A
C295       C300 1.540       .   A
C295       H301 1.140       .   S
C296       C297 1.540       .   A
C297       C298 1.540       .   A
C297       H302 1.140       .   S
C298       C299 1.540       .   A
C298       H303 1.140       .   S
C299       C300 1.540       .   A
C300       H304 1.140       .   S
C285       C286 1.540       .   A
C285       C290 1.540       .   A
C285       H291 1.140       .   S
C286       C287 1.540       .   A
C287       C288 1.540       .   A
C287       H292 1.140       .   S
C288       C289 1.540       .   A
C288       H293 1.140       .   S
C289       C290 1.540       .   A
C290       H294 1.140       .   S
C275       C276 1.540       .   A
C275       C280 1.540       .   A
C275       H281 1.140       .   S
C276       C277 1.540       .   A
C277       C278 1.540       .   A
C277       H282 1.140       .   S
C278       C279 1.540       .   A
C278       H283 1.140       .   S
C279       C280 1.540       .   A
C280       H284 1.140       .   S
C265       C266 1.540       .   A
C265       C270 1.540       .   A
C265       H271 1.140       .   S
C266       C267 1.540       .   A
C267       C268 1.540       .   A
C267       H272 1.140       .   S
C268       C269 1.540       .   A
C268       H273 1.140       .   S
C269       C270 1.540       .   A
C270       H274 1.140       .   S
C255       C256 1.540       .   A
C255       C260 1.540       .   A
C255       H261 1.140       .   S
C256       C257 1.540       .   A
C257       C258 1.540       .   A
C257       H262 1.140       .   S
C258       C259 1.540       .   A
C258       H263 1.140       .   S
C259       C260 1.540       .   A
C260       H264 1.140       .   S
C245       C246 1.540       .   A
C245       C250 1.540       .   A
C245       H251 1.140       .   S
C246       C247 1.540       .   A
C247       C248 1.540       .   A
C247       H252 1.140       .   S
C248       C249 1.540       .   A
C248       H253 1.140       .   S
C249       C250 1.540       .   A
C250       H254 1.140       .   S
C235       C236 1.540       .   A
C235       C240 1.540       .   A
C235       H241 1.140       .   S
C236       C237 1.540       .   A
C237       C238 1.540       .   A
C237       H242 1.140       .   S
C238       C239 1.540       .   A
C238       H243 1.140       .   S
C239       C240 1.540       .   A
C240       H244 1.140       .   S
C225       C226 1.540       .   A
C225       C230 1.540       .   A
C225       H231 1.140       .   S
C226       C227 1.540       .   A
C227       C228 1.540       .   A
C227       H232 1.140       .   S
C228       C229 1.540       .   A
C228       H233 1.140       .   S
C229       C230 1.540       .   A
C230       H234 1.140       .   S
