data_qdl_v1-4c_Cu_1_Ch_1-1B_4H_Ch
_audit_creation_date              2024-08-05
_audit_creation_method            'tobacco_3.0'
_symmetry_space_group_name_H-M    'P1'
_symmetry_Int_Tables_number       1
_symmetry_cell_setting            triclinic
loop_
_symmetry_equiv_pos_as_xyz
  x,y,z
_cell_length_a                    22.263451360484808
_cell_length_b                    22.259940222910938
_cell_length_c                    44.759972732418944
_cell_angle_alpha                 89.96207509614999
_cell_angle_beta                  90.04114388903893
_cell_angle_gamma                 119.9934617236853
loop_
_atom_site_label
_atom_site_type_symbol
_atom_site_fract_x
_atom_site_fract_y
_atom_site_fract_z
_atom_site_charge
O1         O    0.0486321570    0.1114017156    0.2365102710         -1.3557
O2         O    0.0429675265    0.9344360880    0.2333208392         -1.3655
O3         O    0.9847238957    0.9964567526    0.2005117638         -1.2517
O4         O    0.1068800413    0.0493765324    0.2693217339         -1.3358
O5         O    0.0152803579    0.0035387288    0.2994906237         -1.3313
O6         O    0.8931290201    0.9506273990    0.2306832284         -1.2439
O7         O    0.9513678430    0.8885982844    0.2634897290         -1.3689
O8         O    0.9570324735    0.0655639120    0.2666791608         -1.3567
Cu9       Cu    0.0541581689    0.0270968222    0.2321620756          1.0456
Cu10      Cu    0.9458418311    0.9729031778    0.2678379244          1.0433
C11        C    0.0036655833    0.1145749273    0.2520649588          0.3063
C12        C    0.9963344167    0.8854250727    0.2479350412          0.2977
C13        C    0.9209215696    0.9657479243    0.2054521913          0.2191
C14        C    0.0790784304    0.0342520757    0.2945478087          0.2819
O15        O    0.0428181844    0.4343352419    0.2333560417         -1.3557
O16        O    0.0484782754    0.6112986332    0.2365465001         -1.3655
O17        O    0.1067153900    0.5492750641    0.2693579664         -1.2517
O18        O    0.9845768358    0.4963633393    0.2005421813         -1.3358
O19        O    0.8929720957    0.4505222873    0.2307082224         -1.3313
O20        O    0.0151061418    0.5034257122    0.2995213341         -1.2439
O21        O    0.9568735352    0.5654575812    0.2667125412         -1.3689
O22        O    0.9512134442    0.3884941899    0.2635220828         -1.3567
Cu23      Cu    0.0540083978    0.5270052589    0.2321988285          1.0456
Cu24      Cu    0.9456833218    0.4727875642    0.2678697544          1.0433
C25        C    0.9961808013    0.3853217240    0.2479694631          0.3063
C26        C    0.0035109184    0.6144710991    0.2520991198          0.2977
C27        C    0.0789203153    0.5341469825    0.2945834233          0.2191
C28        C    0.9207714043    0.4656458406    0.2054851596          0.2819
O29        O    0.5428830738    0.9343462690    0.2333302721         -1.3557
O30        O    0.5485446841    0.1113103923    0.2365206055         -1.3655
O31        O    0.6067928789    0.0492920825    0.2693282263         -1.2517
O32        O    0.4846306442    0.9963691068    0.2005202576         -1.3358
O33        O    0.3930363044    0.9505332470    0.2306921574         -1.3313
O34        O    0.5151940302    0.0034479223    0.2994974529         -1.2439
O35        O    0.4569503443    0.0654745325    0.2666925053         -1.3689
O36        O    0.4512887340    0.8885104092    0.2635021719         -1.3567
Cu37      Cu    0.5540730980    0.0270161782    0.2321724617          1.0456
Cu38      Cu    0.4457603202    0.9728046233    0.2678503157          1.0433
C39        C    0.4962506672    0.8853352394    0.2479466413          0.3063
C40        C    0.5035827510    0.1144855621    0.2520761361          0.2977
C41        C    0.5790064946    0.0341682551    0.2945554601          0.2191
C42        C    0.4208269236    0.9656525464    0.2054673173          0.2819
O43        O    0.5485457086    0.6113109048    0.2365259480         -1.3557
O44        O    0.5428821576    0.4343458085    0.2333362787         -1.3655
O45        O    0.4846482009    0.4963712242    0.2005239558         -1.2517
O46        O    0.6067839182    0.5492809701    0.2693406588         -1.3358
O47        O    0.5151752685    0.5034386902    0.2995044971         -1.3313
O48        O    0.3930443582    0.4505373939    0.2306903690         -1.2439
O49        O    0.4512735079    0.3885035286    0.2635001170         -1.3689
O50        O    0.4569370589    0.5654686249    0.2666897863         -1.3567
Cu51      Cu    0.5540730786    0.5270066856    0.2321780949          1.0456
Cu52      Cu    0.4457461379    0.4728077478    0.2678479702          1.0433
C53        C    0.5035744926    0.6144818000    0.2520781450          0.3063
C54        C    0.4962447239    0.3853326334    0.2479479201          0.2977
C55        C    0.4208444032    0.4656616370    0.2054608651          0.2191
C56        C    0.5789748134    0.5341527964    0.2945651999          0.2819
O57        O    0.1685631322    0.9913646226    0.4915670504         -1.3557
O58        O    0.9916266993    0.9857013254    0.4947544841         -1.3655
O59        O    0.0536357346    0.9274412053    0.5275600182         -1.2517
O60        O    0.1065495791    0.0496289975    0.4587591290         -1.3358
O61        O    0.0607182768    0.9580202472    0.4285833701         -1.3313
O62        O    0.0078128809    0.8358372640    0.4973816850         -1.2439
O63        O    0.9457953970    0.8940925751    0.4645787252         -1.3689
O64        O    0.1227318298    0.8997558724    0.4613912915         -1.3567
Cu65      Cu    0.0842722437    0.9968921284    0.4959148735          1.0456
Cu66      Cu    0.0300862855    0.8885650693    0.4602309021          1.0433
C67        C    0.1717352899    0.9463933186    0.4760092225          0.3063
C68        C    0.9426232392    0.9390638792    0.4801365531          0.2977
C69        C    0.0229310301    0.8636296812    0.5226148181          0.2191
C70        C    0.0914274991    0.0218275166    0.4335309575          0.2819
O71        O    0.9915986935    0.4856879402    0.4947907372         -1.3557
O72        O    0.1685348674    0.4913511836    0.4916002104         -1.3655
O73        O    0.1065218454    0.5496080107    0.4587952004         -1.2517
O74        O    0.0536162431    0.4274268777    0.5275981407         -1.3358
O75        O    0.0077841278    0.3358179487    0.4974224825         -1.3313
O76        O    0.0606814314    0.4579945721    0.4286222152         -1.2439
O77        O    0.1227027521    0.3997422546    0.4614245522         -1.3689
O78        O    0.9457665782    0.3940790112    0.4646150790         -1.3567
Cu79      Cu    0.0842542855    0.4968801124    0.4959487939          1.0456
Cu80      Cu    0.0300471601    0.3885500824    0.4602664955          1.0433
C81        C    0.9425936572    0.4390479981    0.4801725173          0.3063
C82        C    0.1717077885    0.4463821968    0.4760427721          0.2977
C83        C    0.0913973306    0.5218171180    0.4335668288          0.2191
C84        C    0.0229041150    0.3636130768    0.5226484606          0.2819
O85        O    0.4915941667    0.9856353938    0.4947504341         -1.3557
O86        O    0.6685294175    0.9912964284    0.4915615914         -1.3655
O87        O    0.6065214768    0.0495597455    0.4587574576         -1.2517
O88        O    0.5536066346    0.9273678409    0.5275569614         -1.3358
O89        O    0.5077768512    0.8357635849    0.4973786719         -1.3313
O90        O    0.5606833943    0.9579509795    0.4285818410         -1.2439
O91        O    0.6226996340    0.8996921724    0.4613833019         -1.3689
O92        O    0.4457643832    0.8940311378    0.4645721447         -1.3567
Cu93      Cu    0.5842490844    0.9968260351    0.4959095730          1.0456
Cu94      Cu    0.5300447164    0.8885015311    0.4602241630          1.0433
C95        C    0.4425904324    0.9389981140    0.4801306503          0.3063
C96        C    0.6717033683    0.9463294523    0.4760030858          0.2977
C97        C    0.5913994898    0.0217727769    0.4335282769          0.2191
C98        C    0.5228943109    0.8635547893    0.5226054591          0.2819
O99        O    0.4915994194    0.4856771584    0.4947727449         -1.3557
O100       O    0.6685340123    0.4913367589    0.4915842206         -1.3655
O101       O    0.6065240846    0.5495949019    0.4587779688         -1.2517
O102       O    0.5536138745    0.4274147799    0.5275813904         -1.3358
O103       O    0.5077815013    0.3358053342    0.4974060231         -1.3313
O104       O    0.5606834126    0.4579809467    0.4286052744         -1.2439
O105       O    0.6227016392    0.3997273132    0.4614088533         -1.3689
O106       O    0.4457670462    0.3940677127    0.4645973776         -1.3567
Cu107     Cu    0.5842542444    0.4968675561    0.4959317764          1.0456
Cu108     Cu    0.5300468141    0.3885369154    0.4602498218          1.0433
C109       C    0.4425944872    0.4390374950    0.4801543752          0.3063
C110       C    0.6717065713    0.4463669766    0.4760272230          0.2977
C111       C    0.5914001201    0.5218036020    0.4335496715          0.2191
C112       C    0.5229009384    0.3636008696    0.5226319267          0.2819
O113       O    0.4164953919    0.7953731738    0.1580368881         -1.3557
O114       O    0.4221955829    0.6240837272    0.1612484865         -1.3655
O115       O    0.4803949379    0.7442620223    0.1940544161         -1.2517
O116       O    0.3582917865    0.6751861128    0.1252285712         -1.3358
O117       O    0.4499139451    0.7210358600    0.0950723462         -1.3313
O118       O    0.5720122892    0.7901154169    0.1638956149         -1.2439
O119       O    0.5138177414    0.6699334744    0.1310922615         -1.3689
O120       O    0.5081175505    0.8412229210    0.1278806631         -1.3567
Cu121     Cu    0.4109851100    0.7055400250    0.1623950117          1.0456
Cu122     Cu    0.5193280233    0.7597666233    0.1267341379          1.0433
C123       C    0.4614679599    0.8435551900    0.1424852645          0.3063
C124       C    0.4688451735    0.6217514583    0.1466438851          0.2977
C125       C    0.5442006873    0.7773757975    0.1891226595          0.2191
C126       C    0.3861124461    0.6879308507    0.1000064901          0.2819
O127       O    0.4164555064    0.2953484789    0.1580381042         -1.3557
O128       O    0.4221554485    0.1240589613    0.1612505169         -1.3655
O129       O    0.4803434573    0.2442321366    0.1940597973         -1.2517
O130       O    0.3582632481    0.1751665381    0.1252264363         -1.3358
O131       O    0.4498954498    0.2210212992    0.0950758734         -1.3313
O132       O    0.5719708526    0.2900905454    0.1639066579         -1.2439
O133       O    0.5137876502    0.1699137224    0.1310999540         -1.3689
O134       O    0.5080877082    0.3412032400    0.1278875413         -1.3567
Cu135     Cu    0.4109441834    0.2055148370    0.1623961183          1.0456
Cu136     Cu    0.5192989732    0.2597473643    0.1267419399          1.0433
C137       C    0.4614331327    0.3435330124    0.1424891918          0.3063
C138       C    0.4688100240    0.1217291889    0.1466488664          0.2977
C139       C    0.5441508461    0.2773468986    0.1891319794          0.2191
C140       C    0.3860923106    0.1879153027    0.1000060788          0.2819
O141       O    0.9163617260    0.7952572381    0.1580494887         -1.3557
O142       O    0.9220589581    0.6239661443    0.1612597868         -1.3655
O143       O    0.9802554396    0.7441412680    0.1940678522         -1.2517
O144       O    0.8581609944    0.6750733487    0.1252390359         -1.3358
O145       O    0.9497870229    0.7209250279    0.0950849925         -1.3313
O146       O    0.0718766613    0.7899965950    0.1639112326         -1.2439
O147       O    0.0136849866    0.6698178235    0.1311057434         -1.3689
O148       O    0.0079877545    0.8411089173    0.1278954453         -1.3567
Cu149     Cu    0.9108496114    0.7054230892    0.1624067631          1.0456
Cu150     Cu    0.0191971013    0.7596519724    0.1267484691          1.0433
C151       C    0.9613366652    0.8434404631    0.1424991477          0.3063
C152       C    0.9687100474    0.6216345985    0.1466560844          0.2977
C153       C    0.0440618406    0.7772548315    0.1891376244          0.2191
C154       C    0.8859848720    0.6878202302    0.1000176078          0.2819
O155       O    0.9165586543    0.2953913666    0.1580179423         -1.3557
O156       O    0.9222549522    0.1240997574    0.1612278932         -1.3655
O157       O    0.9804497625    0.2442735459    0.1940368511         -1.2517
O158       O    0.8583595940    0.1752088125    0.1252065968         -1.3358
O159       O    0.9499875129    0.2210614355    0.0950536191         -1.3313
O160       O    0.0720728747    0.2901298167    0.1638812972         -1.2439
O161       O    0.0138828711    0.1699523804    0.1310749155         -1.3689
O162       O    0.0081865731    0.3412439896    0.1278649646         -1.3567
Cu163     Cu    0.9110459000    0.2055568739    0.1623749458          1.0456
Cu164     Cu    0.0193956253    0.2597868731    0.1267179120          1.0433
C165       C    0.9615346764    0.3435751394    0.1424681853          0.3063
C166       C    0.9689068490    0.1217686076    0.1466246725          0.2977
C167       C    0.0442564782    0.2773871116    0.1891073681          0.2191
C168       C    0.8861850472    0.1879566354    0.0999854897          0.2819
O169       O    0.4739562701    0.7271385810    0.8997852877         -1.3557
O170       O    0.2970196071    0.5558637768    0.9029694664         -1.3655
O171       O    0.3589655356    0.6761012985    0.9357367305         -1.2517
O172       O    0.4120058188    0.6068922985    0.8670156329         -1.3358
O173       O    0.4577861785    0.5610906225    0.8972526892         -1.3313
O174       O    0.4047541991    0.6303034142    0.9659711168         -1.2439
O175       O    0.3427999668    0.5100621008    0.9332065227         -1.3689
O176       O    0.5197366298    0.6813369050    0.9300223440         -1.3567
Cu177     Cu    0.3813051559    0.6456764928    0.8986184535          1.0456
Cu178     Cu    0.4354510810    0.5915241890    0.9343733569          1.0433
C179       C    0.5229354992    0.7294915196    0.9144351430          0.3063
C180       C    0.2938207377    0.5077091622    0.9185566674          0.2977
C181       C    0.3740443221    0.6634126836    0.9609837349          0.2191
C182       C    0.4427119148    0.5737879981    0.8720080755          0.2819
O183       O    0.4739438586    0.2270964566    0.8998013263         -1.3557
O184       O    0.2970081132    0.0558204583    0.9029843381         -1.3655
O185       O    0.3589521935    0.1760569911    0.9357522936         -1.2517
O186       O    0.4119952557    0.1068511632    0.8670309800         -1.3358
O187       O    0.4577757230    0.0610493796    0.8972679153         -1.3313
O188       O    0.4047409647    0.1302589993    0.9659865590         -1.2439
O189       O    0.3427885805    0.0100186747    0.9332212735         -1.3689
O190       O    0.5197243259    0.1812946731    0.9300382616         -1.3567
Cu191     Cu    0.3812931935    0.1456337811    0.8986339196          1.0456
Cu192     Cu    0.4354392457    0.0914813502    0.9343886801          1.0433
C193       C    0.5229230062    0.2294495175    0.9144512931          0.3063
C194       C    0.2938094329    0.0076656138    0.9185713067          0.2977
C195       C    0.3740306241    0.1633678549    0.9609992694          0.2191
C196       C    0.4427018150    0.0737472765    0.8720233303          0.2819
O197       O    0.9739215293    0.7271172117    0.8997908134         -1.3557
O198       O    0.7969892127    0.5558367750    0.9029696127         -1.3655
O199       O    0.8589273247    0.6760689100    0.9357406118         -1.2517
O200       O    0.9119788950    0.6068763164    0.8670174231         -1.3358
O201       O    0.9577604774    0.5610734170    0.8972531043         -1.3313
O202       O    0.9047172111    0.6302698030    0.9659736233         -1.2439
O203       O    0.8427707951    0.5100338755    0.9332052939         -1.3689
O204       O    0.0197031116    0.6813143123    0.9300264946         -1.3567
Cu205     Cu    0.8812724768    0.6456524187    0.8986214148          1.0456
Cu206     Cu    0.9354198475    0.5914986686    0.9343746924          1.0433
C207       C    0.0229007288    0.7294703690    0.9144407742          0.3063
C208       C    0.7937915955    0.5076807183    0.9185553330          0.2977
C209       C    0.8740050585    0.6633772653    0.9609872373          0.2191
C210       C    0.9426872658    0.5737738220    0.8720088699          0.2819
O211       O    0.9739479597    0.2271379368    0.8997879344         -1.3557
O212       O    0.7970100431    0.0558648270    0.9029741099         -1.3655
O213       O    0.8589610602    0.1761017799    0.9357416879         -1.2517
O214       O    0.9119924196    0.1068922233    0.8670179656         -1.3358
O215       O    0.9577745823    0.0610887427    0.8972529938         -1.3313
O216       O    0.9047515263    0.1303020909    0.9659740461         -1.2439
O217       O    0.8427922058    0.0100613464    0.9332091381         -1.3689
O218       O    0.0197301224    0.1813344562    0.9300229627         -1.3567
Cu219     Cu    0.8812960542    0.1456768605    0.8986222837          1.0456
Cu220     Cu    0.9354441113    0.0915224227    0.9343747888          1.0433
C221       C    0.0229282753    0.2294897232    0.9144364812          0.3063
C222       C    0.7938118902    0.0077095600    0.9185605913          0.2977
C223       C    0.8740420635    0.1634123447    0.9609880652          0.2191
C224       C    0.9426981020    0.0737869385    0.8720090073          0.2819
O225       O    0.8526211648    0.3591124052    0.5700134234         -1.3557
O226       O    0.6813563957    0.3648101477    0.5668050550         -1.3655
O227       O    0.8015164439    0.4230337285    0.5340043755         -1.2517
O228       O    0.7324523520    0.3008845722    0.6028164899         -1.3358
O229       O    0.7782924700    0.3925095394    0.6329831149         -1.3313
O230       O    0.8473602089    0.5146538868    0.5641735759         -1.2439
O231       O    0.7271965137    0.4564351149    0.5969716800         -1.3689
O232       O    0.8984612828    0.4507373724    0.6001800484         -1.3567
Cu233     Cu    0.7628012341    0.3536006429    0.5656559659          1.0456
Cu234     Cu    0.8170164445    0.4619468772    0.6013291375          1.0433
C235       C    0.9007947275    0.4040867388    0.5855697709          0.3063
C236       C    0.6790229510    0.4114607812    0.5814153325          0.2977
C237       C    0.8346236618    0.4868476635    0.5389433554          0.2191
C238       C    0.7451940168    0.3286998565    0.6280417480          0.2819
O239       O    0.8525237911    0.8590229952    0.5700181970         -1.3557
O240       O    0.6812586558    0.8647201182    0.5668103955         -1.3655
O241       O    0.8014195913    0.9229466467    0.5340102831         -1.2517
O242       O    0.7323540909    0.8007922144    0.6028206963         -1.3358
O243       O    0.7781930627    0.8924148845    0.6329886153         -1.3313
O244       O    0.8472622101    0.0145645078    0.5641807776         -1.2439
O245       O    0.7270976276    0.9563427884    0.5969783146         -1.3689
O246       O    0.8983627629    0.9506456653    0.6001861161         -1.3567
Cu247     Cu    0.7627037819    0.8535111328    0.5656609049          1.0456
Cu248     Cu    0.8169176369    0.9618546508    0.6013356067          1.0433
C249       C    0.9006968347    0.9039962716    0.5855751080          0.3063
C250       C    0.6789245840    0.9113695119    0.5814214036          0.2977
C251       C    0.8345264437    0.9867602110    0.5389501608          0.2191
C252       C    0.7450949750    0.8286055725    0.6280463508          0.2819
O253       O    0.3525183955    0.3589640660    0.5699906676         -1.3557
O254       O    0.1812537065    0.3646618833    0.5667817398         -1.3655
O255       O    0.3014110651    0.4228791985    0.5339793031         -1.2517
O256       O    0.2323522725    0.3007424991    0.6027954914         -1.3358
O257       O    0.2781951106    0.3923729174    0.6329590452         -1.3313
O258       O    0.3472575504    0.5145048084    0.5641454325         -1.2439
O259       O    0.2270965446    0.4562923016    0.5969452936         -1.3689
O260       O    0.3983612336    0.4505944843    0.6001542214         -1.3567
Cu261     Cu    0.2626982565    0.3534518436    0.5656332106          1.0456
Cu262     Cu    0.3169166836    0.4618045240    0.6013027506          1.0433
C263       C    0.4006933064    0.4039411141    0.5855455620          0.3063
C264       C    0.1789216337    0.4113152535    0.5813903992          0.2977
C265       C    0.3345188617    0.4866940227    0.5389161470          0.2191
C266       C    0.2450960784    0.3285623449    0.6280198142          0.2819
O267       O    0.3525296945    0.8590252369    0.5700069872         -1.3557
O268       O    0.1812658215    0.8647245575    0.5667976786         -1.3655
O269       O    0.3014262614    0.9229466979    0.5339972887         -1.2517
O270       O    0.2323604899    0.8007988445    0.6028097640         -1.3358
O271       O    0.2782008764    0.8924243498    0.6329760859         -1.3313
O272       O    0.3472702949    0.0145673943    0.5641661860         -1.2439
O273       O    0.2271062081    0.9563500628    0.5969640004         -1.3689
O274       O    0.3983700810    0.9506507422    0.6001733090         -1.3567
Cu275     Cu    0.2627101873    0.8535142145    0.5656490872          1.0456
Cu276     Cu    0.3169257152    0.9618610851    0.6013219004          1.0433
C277       C    0.4007032593    0.9039996069    0.5855633217          0.3063
C278       C    0.1789326432    0.9113756928    0.5814076659          0.2977
C279       C    0.3345338611    0.9867607098    0.5389360639          0.2191
C280       C    0.2451020415    0.8286145898    0.6280349237          0.2819
O281       O    0.7843897088    0.4164291934    0.8282343310         -1.3557
O282       O    0.6131150516    0.2394880391    0.8250471535         -1.3655
O283       O    0.7333266383    0.3014152018    0.7922798925         -1.2517
O284       O    0.6641693634    0.3544975094    0.8610039828         -1.3358
O285       O    0.6183876494    0.4003019889    0.8307692638         -1.3313
O286       O    0.6875487178    0.3472279867    0.7620478436         -1.2439
O287       O    0.5673333377    0.2852925186    0.7948124345         -1.3689
O288       O    0.7386079949    0.4622336729    0.7979996120         -1.3567
Cu289     Cu    0.7029258723    0.3237736322    0.8293994524          1.0456
Cu290     Cu    0.6487971742    0.3779480798    0.7936473131          1.0433
C291       C    0.7867526067    0.4654211448    0.8135860866          0.3063
C292       C    0.5649704398    0.2363005673    0.8094606789          0.2977
C293       C    0.7206403790    0.3164998528    0.7670336156          0.2191
C294       C    0.6310826675    0.3852218592    0.8560131499          0.2819
O295       O    0.6131131275    0.7394955726    0.8250491452         -1.3557
O296       O    0.7843885939    0.9164365014    0.8282327120         -1.3655
O297       O    0.6641786486    0.8545137150    0.8610011377         -1.2517
O298       O    0.7333318410    0.8014228704    0.7922783350         -1.3358
O299       O    0.6875489992    0.8472270308    0.7620440707         -1.3313
O300       O    0.6183921626    0.9003094201    0.8307643022         -1.2439
O301       O    0.7386057520    0.9622406617    0.7979984477         -1.3689
O302       O    0.5673302857    0.7852997329    0.7948148810         -1.3567
Cu303     Cu    0.7029331800    0.8237911868    0.8294003734          1.0456
Cu304     Cu    0.6487856995    0.8779450475    0.7936472196          1.0433
C305       C    0.5649666258    0.7363091816    0.8094626336          0.3063
C306       C    0.7867522537    0.9654270527    0.8135849594          0.2977
C307       C    0.6310869321    0.8852309402    0.8560151771          0.2191
C308       C    0.7206319474    0.8165052941    0.7670324159          0.2819
O309       O    0.2844006329    0.4164608752    0.8282251584         -1.3557
O310       O    0.1131223073    0.2395225335    0.8250416449         -1.3655
O311       O    0.2333312959    0.3014434578    0.7922725496         -1.2517
O312       O    0.1641828857    0.3545354300    0.8609966446         -1.3358
O313       O    0.1184012813    0.4003398000    0.8307618025         -1.3313
O314       O    0.1875534854    0.3472561335    0.7620403775         -1.2439
O315       O    0.0673407029    0.2853269035    0.7948068028         -1.3689
O316       O    0.2386190285    0.4622652452    0.7979903162         -1.3567
Cu317     Cu    0.2029349520    0.3238067303    0.8293921232          1.0456
Cu318     Cu    0.1488063838    0.3779810484    0.7936398380          1.0433
C319       C    0.2867641264    0.4654523570    0.8135763121          0.3063
C320       C    0.0649772094    0.2363354217    0.8094556490          0.2977
C321       C    0.2206437849    0.3165266293    0.7670262103          0.2191
C322       C    0.1310975510    0.3852611494    0.8560057508          0.2819
O323       O    0.1130855305    0.7395070023    0.8250480314         -1.3557
O324       O    0.2843615464    0.9164475379    0.8282308494         -1.3655
O325       O    0.1641508361    0.8545271311    0.8609987915         -1.2517
O326       O    0.2333050091    0.8014319204    0.7922777048         -1.3358
O327       O    0.1875233288    0.8472349181    0.7620421338         -1.3313
O328       O    0.1183655117    0.9003216734    0.8307606494         -1.2439
O329       O    0.2385798662    0.9622505356    0.7979952784         -1.3689
O330       O    0.0673038502    0.7853100000    0.7948124604         -1.3567
Cu331     Cu    0.2029057518    0.8238025261    0.8293990043          1.0456
Cu332     Cu    0.1487596449    0.8779550118    0.7936443055          1.0433
C333       C    0.0649395286    0.7363200880    0.8094609768          0.3063
C334       C    0.2867258681    0.9654374498    0.8135823330          0.2977
C335       C    0.1310595558    0.8852444186    0.8560119246          0.2191
C336       C    0.2206058408    0.8165131193    0.7670313852          0.2819
C807       C    0.4621372850    0.6373909621    0.8407794908          0.3708
C808       C    0.4959108682    0.6690767762    0.8104837358          0.3708
C809       C    0.4596389594    0.6325665835    0.7812237178          0.3708
C810       C    0.3895934673    0.5643705766    0.7822594549          0.3708
C811       C    0.3558198841    0.5326847625    0.8125552099          0.3708
C812       C    0.3920917929    0.5691949552    0.8418152278          0.3708
H813       H    0.4889879188    0.6644179879    0.8624395041          0.3708
H814       H    0.4846368977    0.6560191550    0.7587979817          0.3708
H815       H    0.3627428335    0.5373435508    0.7605994416          0.3708
H816       H    0.3670938545    0.5457423836    0.8642409640          0.3708
C797       C    0.8576962946    0.1022261709    0.8081838762          0.3708
C798       C    0.8558231044    0.0326815211    0.8125598358          0.3708
C799       C    0.9239915413    0.0313365873    0.8158962638          0.3708
C800       C    0.9940331685    0.0995363034    0.8148567323          0.3708
C801       C    0.9959063588    0.1690809533    0.8104807727          0.3708
C802       C    0.9277379218    0.1704258871    0.8071443446          0.3708
H803       H    0.8072339452    0.1032217713    0.8057140528          0.3708
H804       H    0.9226071699    0.9798598421    0.8191354392          0.3708
H805       H    0.0444955180    0.0985407031    0.8173265557          0.3708
H806       H    0.9291222933    0.2219026323    0.8039051693          0.3708
C787       C    0.4613506713    0.1306773146    0.7812937595          0.3708
C788       C    0.4958977689    0.1690603015    0.8104838567          0.3708
C789       C    0.4603952516    0.1392519955    0.8407116032          0.3708
C790       C    0.3903456366    0.0710607025    0.8417492525          0.3708
C791       C    0.3557985389    0.0326777156    0.8125591553          0.3708
C792       C    0.3913010563    0.0624860217    0.7823314088          0.3708
H793       H    0.4876317555    0.1527432035    0.7589173757          0.3708
H794       H    0.4859657670    0.1676620026    0.8623189660          0.3708
H795       H    0.3640645523    0.0489948137    0.8641256363          0.3708
H796       H    0.3657305409    0.0340760145    0.7607240459          0.3708
C777       C    0.8576183226    0.6027189447    0.8117312538          0.3708
C778       C    0.8558077591    0.5326671809    0.8125620985          0.3708
C779       C    0.9240355041    0.5308188526    0.8123543764          0.3708
C780       C    0.9940738127    0.5990222881    0.8113158095          0.3708
C781       C    0.9958843762    0.6690740519    0.8104849648          0.3708
C782       C    0.9276566312    0.6709223802    0.8106926869          0.3708
H783       H    0.8071120698    0.6040871877    0.8118850221          0.3708
H784       H    0.9226974906    0.4789667275    0.8129693581          0.3708
H785       H    0.0445800655    0.5976540451    0.8111620412          0.3708
H786       H    0.9289946447    0.7227745053    0.8100777052          0.3708
C767       C    0.2958817548    0.8245227098    0.6823718092          0.3708
C768       C    0.2388999407    0.8255506641    0.6632269139          0.3708
C769       C    0.1758721271    0.8235918088    0.6783882592          0.3708
C770       C    0.1698261275    0.8206049993    0.7126944997          0.3708
C771       C    0.2268079416    0.8195770450    0.7318393950          0.3708
C772       C    0.2898357552    0.8215359003    0.7166780497          0.3708
H773       H    0.3425387078    0.8259727715    0.6711484757          0.3708
H774       H    0.1336923962    0.8243526350    0.6642177556          0.3708
H775       H    0.1231691745    0.8191549376    0.7239178333          0.3708
H776       H    0.3320154861    0.8207750741    0.7308485533          0.3708
C757       C    0.3048225634    0.3603897586    0.6826324010          0.3708
C758       C    0.2389047266    0.3255148864    0.6632164103          0.3708
C759       C    0.1669520949    0.2876696149    0.6781070216          0.3708
C760       C    0.1609172999    0.2846992156    0.7124136235          0.3708
C761       C    0.2268351366    0.3195740878    0.7318296142          0.3708
C762       C    0.2987877684    0.3574193593    0.7169390029          0.3708
H763       H    0.3580861999    0.3884050895    0.6716094809          0.3708
H764       H    0.1181576693    0.2618541607    0.6637358455          0.3708
H765       H    0.1076536634    0.2566838847    0.7234365436          0.3708
H766       H    0.3475821940    0.3832348135    0.7313101790          0.3708
C747       C    0.5894679959    0.9355430025    0.6104069861          0.3708
C748       C    0.6098618915    0.9095400854    0.5824495491          0.3708
C749       C    0.5602078173    0.8816816422    0.5555349257          0.3708
C750       C    0.4901598474    0.8798261163    0.5565777392          0.3708
C751       C    0.4697659518    0.9058290334    0.5845351762          0.3708
C752       C    0.5194200260    0.9336874766    0.6114497996          0.3708
H753       H    0.6262249080    0.9561654864    0.6303307982          0.3708
H754       H    0.5753017350    0.8624334937    0.5348400784          0.3708
H755       H    0.4534029354    0.8592036324    0.5366539271          0.3708
H756       H    0.5043261083    0.9529356251    0.6321446469          0.3708
C737       C    0.9866237253    0.8657448445    0.6079903793          0.3708
C738       C    0.9697660566    0.9058281382    0.5845405827          0.3708
C739       C    0.0229570702    0.9477692759    0.5600415903          0.3708
C740       C    0.0930057526    0.9496271199    0.5589923946          0.3708
C741       C    0.1098634213    0.9095438262    0.5824421912          0.3708
C742       C    0.0566724077    0.8676026885    0.6069411835          0.3708
H743       H    0.9472485594    0.8346975088    0.6261259970          0.3708
H744       H    0.0104807671    0.9774401148    0.5426833589          0.3708
H745       H    0.1323809185    0.9806744556    0.5408567769          0.3708
H746       H    0.0691487108    0.8379318496    0.6242994150          0.3708
C727       C    0.6972617238    0.8543775682    0.6790897641          0.3708
C728       C    0.7389017698    0.8255421942    0.6632328878          0.3708
C729       C    0.7745035072    0.7937200593    0.6816825070          0.3708
C730       C    0.7684651986    0.7907332984    0.7159890026          0.3708
C731       C    0.7268251527    0.8195686724    0.7318458789          0.3708
C732       C    0.6912234153    0.8513908073    0.7133962596          0.3708
H733       H    0.6709071909    0.8779342135    0.6654322537          0.3708
H734       H    0.8053264479    0.7723752109    0.6699458874          0.3708
H735       H    0.7948197315    0.7671766531    0.7296465129          0.3708
H736       H    0.6604004745    0.8727356557    0.7251328792          0.3708
C717       C    0.5417419383    0.3394885524    0.5829461819          0.3708
C718       C    0.6099242521    0.4095939330    0.5824407119          0.3708
C719       C    0.6080404426    0.4778063283    0.5829749772          0.3708
C720       C    0.5379743192    0.4759133430    0.5840147126          0.3708
C721       C    0.4697920053    0.4058079624    0.5845201826          0.3708
C722       C    0.4716758149    0.3375955671    0.5839859172          0.3708
H723       H    0.5431364467    0.2889936623    0.5825506868          0.3708
H724       H    0.6585086894    0.5297002406    0.5826008470          0.3708
H725       H    0.5365798108    0.5264082330    0.5844102077          0.3708
H726       H    0.4212075681    0.2857016548    0.5843600474          0.3708
C707       C    0.0102047254    0.4217705034    0.5549330169          0.3708
C708       C    0.9698278139    0.4058809078    0.5845324210          0.3708
C709       C    0.9994812692    0.3918114005    0.6130794892          0.3708
C710       C    0.0695116358    0.3936314889    0.6120271532          0.3708
C711       C    0.1098885472    0.4095210845    0.5824277492          0.3708
C712       C    0.0802350920    0.4235905917    0.5538806810          0.3708
H713       H    0.9882534663    0.4321855932    0.5338007717          0.3708
H714       H    0.9695953613    0.3800495331    0.6349897663          0.3708
H715       H    0.0914628949    0.3832163991    0.6331593985          0.3708
H716       H    0.1101209999    0.4353524592    0.5319704039          0.3708
C697       C    0.6626676031    0.3008900426    0.7124673999          0.3708
C698       C    0.7268569033    0.3195886668    0.7318434606          0.3708
C699       C    0.7971064981    0.3412984788    0.7169137425          0.3708
C700       C    0.8031667927    0.3443096667    0.6826079637          0.3708
C701       C    0.7389774925    0.3256110425    0.6632319030          0.3708
C702       C    0.6687278977    0.3039012305    0.6781616211          0.3708
H703       H    0.6106646562    0.2848191428    0.7235192691          0.3708
H704       H    0.8446214132    0.3551398210    0.7312553613          0.3708
H705       H    0.8551697396    0.3603805665    0.6715560945          0.3708
H706       H    0.6212129826    0.2900598883    0.6638200023          0.3708
C687       C    0.9605831457    0.9410170344    0.8741681902          0.3708
C688       C    0.9971523269    0.0192803684    0.8673843417          0.3708
C689       C    0.0734480101    0.0577790126    0.8572266175          0.3708
C690       C    0.1131745121    0.0180143227    0.8538527417          0.3708
C691       C    0.0766053309    0.9397509887    0.8606365902          0.3708
C692       C    0.0003096477    0.9012523445    0.8707943145          0.3708
H693       H    0.9041045231    0.9125180380    0.8816875445          0.3708
H694       H    0.1005188026    0.1157104727    0.8522049154          0.3708
H695       H    0.1696531347    0.0465133191    0.8463333874          0.3708
H696       H    0.9732388552    0.8433208844    0.8758160165          0.3708
C677       C    0.0174450053    0.4929822661    0.8953102407          0.3708
C678       C    0.9971577348    0.5192737522    0.8673822785          0.3708
C679       C    0.0166051379    0.5058089718    0.8360793482          0.3708
C680       C    0.0563398115    0.4660527052    0.8327043801          0.3708
C681       C    0.0766270820    0.4397612191    0.8606323422          0.3708
C682       C    0.0571796789    0.4532259996    0.8919352726          0.3708
H683       H    0.0030488757    0.5029497010    0.9184825398          0.3708
H684       H    0.0015891878    0.5252694102    0.8154061792          0.3708
H685       H    0.0707359411    0.4560852704    0.8095320810          0.3708
H686       H    0.0721956289    0.4337655611    0.9126084415          0.3708
C667       C    0.1906994659    0.9017300140    0.9468087411          0.3708
C668       C    0.2265594580    0.9386068388    0.9175459494          0.3708
C669       C    0.1942150730    0.9054448162    0.8872432488          0.3708
C670       C    0.1260106959    0.8354059688    0.8862033398          0.3708
C671       C    0.0901507037    0.7985291440    0.9154661315          0.3708
C672       C    0.1224950887    0.8316911666    0.9457688321          0.3708
H673       H    0.2146427119    0.9262785243    0.9692406104          0.3708
H674       H    0.2207574881    0.9327398614    0.8655820754          0.3708
H675       H    0.1020674498    0.8108574586    0.8637714705          0.3708
H676       H    0.0959526736    0.8043961214    0.9674300055          0.3708
C657       C    0.6597596703    0.3003584403    0.9195294102          0.3708
C658       C    0.5901624844    0.2985166648    0.9154700657          0.3708
C659       C    0.5887601150    0.3667233424    0.9124439685          0.3708
C660       C    0.6569549314    0.4367717955    0.9134772158          0.3708
C661       C    0.7265521173    0.4386135710    0.9175365604          0.3708
C662       C    0.7279544868    0.3704068934    0.9205626575          0.3708
H663       H    0.6607977880    0.2498677829    0.9217695081          0.3708
H664       H    0.5372444809    0.3653622253    0.9094391603          0.3708
H665       H    0.6559168138    0.4872624529    0.9112371179          0.3708
H666       H    0.7794701208    0.3717680105    0.9235674657          0.3708
C647       C    0.5601890546    0.0469928107    0.8463587559          0.3708
C648       C    0.4971628842    0.0192482725    0.8673954640          0.3708
C649       C    0.4738682032    0.9517445701    0.8850559618          0.3708
C650       C    0.5135996926    0.9119854059    0.8816797515          0.3708
C651       C    0.5766258629    0.9397299441    0.8606430434          0.3708
C652       C    0.5999205439    0.0072336465    0.8429825456          0.3708
H653       H    0.5774331691    0.0969630840    0.8332854004          0.3708
H654       H    0.4272157187    0.9312060253    0.9006278172          0.3708
H655       H    0.4963555781    0.8620151327    0.8947531070          0.3708
H656       H    0.6465730284    0.0277721914    0.8274106901          0.3708
C637       C    0.1565026159    0.4368065243    0.9173128448          0.3708
C638       C    0.2265737652    0.4386433240    0.9175338629          0.3708
C639       C    0.2284456557    0.3704362424    0.9167175924          0.3708
C640       C    0.1602463970    0.3003923611    0.9156803039          0.3708
C641       C    0.0901752478    0.2985555614    0.9154592858          0.3708
C642       C    0.0883033573    0.3667626430    0.9162755562          0.3708
H643       H    0.1551169307    0.4872974809    0.9179170969          0.3708
H644       H    0.2803121305    0.3717936765    0.9168811634          0.3708
H645       H    0.1616320822    0.2499014046    0.9150760517          0.3708
H646       H    0.0364368824    0.3654052089    0.9161119853          0.3708
C627       C    0.6280069182    0.8336028133    0.8862409950          0.3708
C628       C    0.5901764671    0.7985549409    0.9154592231          0.3708
C629       C    0.6205432437    0.8335526674    0.9457160953          0.3708
C630       C    0.6887404713    0.9035982662    0.9467547393          0.3708
C631       C    0.7265709224    0.9386461387    0.9175365111          0.3708
C632       C    0.6962041458    0.9036484122    0.8872796390          0.3708
H633       H    0.6055276160    0.8076954054    0.8638430507          0.3708
H634       H    0.5925422393    0.8076114643    0.9673442814          0.3708
H635       H    0.7112197735    0.9295056742    0.9691526836          0.3708
H636       H    0.7242051502    0.9295896152    0.8656514528          0.3708
C617       C    0.5539059004    0.5306290674    0.8900921556          0.3708
C618       C    0.4971722120    0.5192712124    0.8673837462          0.3708
C619       C    0.4801636027    0.4681470737    0.8413022033          0.3708
C620       C    0.5198886819    0.4283807900    0.8379290699          0.3708
C621       C    0.5766223703    0.4397386450    0.8606374793          0.3708
C622       C    0.5936309795    0.4908627837    0.8867190221          0.3708
H623       H    0.5664966891    0.5684742090    0.9093992717          0.3708
H624       H    0.4381689899    0.4597384118    0.8244926940          0.3708
H625       H    0.5072978932    0.3905356483    0.8186219537          0.3708
H626       H    0.6356255923    0.4992714455    0.9035285315          0.3708
C607       C    0.8126876393    0.1488796340    0.0485899446          0.3708
C608       C    0.8831105813    0.1817422991    0.0647929166          0.3708
C609       C    0.9505364974    0.2085471551    0.0466897494          0.3708
C610       C    0.9475394714    0.2024893461    0.0123836103          0.3708
C611       C    0.8771165294    0.1696266811    0.9961806383          0.3708
C612       C    0.8096906134    0.1428218250    0.0142838055          0.3708
H613       H    0.7627749482    0.1290370783    0.0619909904          0.3708
H614       H    0.0026654426    0.2328728313    0.0586825588          0.3708
H615       H    0.9974521625    0.2223319019    0.9989825645          0.3708
H616       H    0.7575616681    0.1184961489    0.0022909961          0.3708
C597       C    0.0351425420    0.5507661188    0.1460037273          0.3708
C598       C    0.9669296362    0.5526402326    0.1456169490          0.3708
C599       C    0.8969094561    0.4844789828    0.1441753565          0.3708
C600       C    0.8951021818    0.4144436192    0.1431205424          0.3708
C601       C    0.9633150876    0.4125695054    0.1435073208          0.3708
C602       C    0.0333352677    0.4807307552    0.1449489133          0.3708
H603       H    0.0869756624    0.6012231479    0.1470708802          0.3708
H604       H    0.8464162897    0.4858640380    0.1438890189          0.3708
H605       H    0.8432690614    0.3639865901    0.1420533895          0.3708
H606       H    0.0838284341    0.4793457000    0.1452352509          0.3708
C587       C    0.9642229730    0.9494379570    0.1142597298          0.3708
C588       C    0.9632155630    0.9125207059    0.1435230911          0.3708
C589       C    0.9641143471    0.9456872842    0.1738252714          0.3708
C590       C    0.9660205412    0.0157711137    0.1748640904          0.3708
C591       C    0.9670279512    0.0526883648    0.1456007291          0.3708
C592       C    0.9661291671    0.0195217864    0.1152985488          0.3708
H593       H    0.9635576393    0.9248860743    0.0918282456          0.3708
H594       H    0.9633686942    0.9183623158    0.1954868664          0.3708
H595       H    0.9666858749    0.0403229964    0.1972955746          0.3708
H596       H    0.9668748200    0.0468467549    0.0936369538          0.3708
C577       C    0.8175488886    0.6695297326    0.0479068911          0.3708
C578       C    0.8829510911    0.6816302673    0.0648094061          0.3708
C579       C    0.9453971678    0.6876992824    0.0474049375          0.3708
C580       C    0.9424410420    0.6816677629    0.0130979540          0.3708
C581       C    0.8770388395    0.6695672282    0.9961954390          0.3708
C582       C    0.8145927628    0.6634982130    0.0135999075          0.3708
H583       H    0.7713225721    0.6650370850    0.0607907185          0.3708
H584       H    0.9938096218    0.6966562473    0.0599155682          0.3708
H585       H    0.9886673585    0.6861604105    0.0002141266          0.3708
H586       H    0.7661803087    0.6545412482    0.0010892768          0.3708
C567       C    0.4460439248    0.1892770654    0.0473492813          0.3708
C568       C    0.3830382250    0.1816997535    0.0648087879          0.3708
C569       C    0.3170557676    0.1680642668    0.0479621807          0.3708
C570       C    0.3140790099    0.1620060921    0.0136560670          0.3708
C571       C    0.3770847097    0.1695834041    0.9961965604          0.3708
C572       C    0.4430671671    0.1832188907    0.0130431675          0.3708
H573       H    0.4948880816    0.1993708673    0.0598201463          0.3708
H574       H    0.2704170844    0.1624551359    0.0608851123          0.3708
H575       H    0.2652348531    0.1519122903    0.0011852019          0.3708
H576       H    0.4897058503    0.1888280216    0.0001202360          0.3708
C557       C    0.5333510890    0.4807644304    0.1443258308          0.3708
C558       C    0.4632725622    0.4125778614    0.1435202527          0.3708
C559       C    0.3950606263    0.4144556663    0.1437609604          0.3708
C560       C    0.3969272171    0.4845200403    0.1448072461          0.3708
C561       C    0.4670057439    0.5527066093    0.1456128242          0.3708
C562       C    0.5352176798    0.5508288044    0.1453721165          0.3708
H563       H    0.5838456390    0.4793743671    0.1441476446          0.3708
H564       H    0.3431865911    0.3639842697    0.1431646820          0.3708
H565       H    0.3464326671    0.4859101036    0.1449854323          0.3708
H566       H    0.5870917150    0.6013002010    0.1459683949          0.3708
C547       C    0.4642330616    0.9494894809    0.1142602628          0.3708
C548       C    0.4632899541    0.9125863807    0.1435184969          0.3708
C549       C    0.4641958844    0.9457390892    0.1738252996          0.3708
C550       C    0.4660449222    0.0157948979    0.1748738681          0.3708
C551       C    0.4669880297    0.0526979981    0.1456156340          0.3708
C552       C    0.4660820994    0.0195452896    0.1153088314          0.3708
H553       H    0.4635624379    0.9249478655    0.0918253570          0.3708
H554       H    0.4634978282    0.9184245948    0.1954830996          0.3708
H555       H    0.4667155459    0.0403365133    0.1973087739          0.3708
H556       H    0.4667801556    0.0468597840    0.0936510313          0.3708
C537       C    0.3810620631    0.6141323896    0.0152874333          0.3708
C538       C    0.3771003565    0.6696214665    0.9961887361          0.3708
C539       C    0.3761166775    0.7311608441    0.0113964153          0.3708
C540       C    0.3790947051    0.7372111447    0.0457027917          0.3708
C541       C    0.3830564117    0.6817220678    0.0648014889          0.3708
C542       C    0.3840400907    0.6201826903    0.0495938097          0.3708
H543       H    0.3817902411    0.5685772660    0.0040298007          0.3708
H544       H    0.3731842052    0.7722356091    0.9972601088          0.3708
H545       H    0.3783665271    0.7827662684    0.0569604243          0.3708
H546       H    0.3869725630    0.5791079252    0.0637301163          0.3708
C527       C    0.3893916402    0.2134068879    0.5225135263          0.3708
C528       C    0.4684480304    0.2546644097    0.5273451053          0.3708
C529       C    0.5077737899    0.2164383115    0.5356155743          0.3708
C530       C    0.4680431593    0.1369546915    0.5390544642          0.3708
C531       C    0.3889867691    0.0956971697    0.5342228852          0.3708
C532       C    0.3496610096    0.1339232679    0.5259524163          0.3708
H533       H    0.3602803637    0.2417041294    0.5163912311          0.3708
H534       H    0.5662922935    0.2469757728    0.5391921536          0.3708
H535       H    0.4971544358    0.1086574500    0.5451767594          0.3708
H536       H    0.2911425060    0.1033858066    0.5223758370          0.3708
C517       C    0.4624617446    0.7082616720    0.5006469373          0.3708
C518       C    0.4684366729    0.7546077513    0.5273207314          0.3708
C519       C    0.4346815146    0.7214704853    0.5574345972          0.3708
C520       C    0.3949514280    0.6419871399    0.5608746688          0.3708
C521       C    0.3889764997    0.5956410606    0.5342008747          0.3708
C522       C    0.4227316580    0.6287783267    0.5040870090          0.3708
H523       H    0.4874493293    0.7327918560    0.4783548549          0.3708
H524       H    0.4391030670    0.7557746398    0.5771793978          0.3708
H525       H    0.3699638432    0.6174569560    0.5831667513          0.3708
H526       H    0.4183101056    0.5944741722    0.4843422083          0.3708
C507       C    0.0065805737    0.2135443366    0.5231646208          0.3708
C508       C    0.9684468773    0.2546704087    0.5273610444          0.3708
C509       C    0.8905815830    0.2163127161    0.5349957343          0.3708
C510       C    0.8508499851    0.1368289513    0.5384340006          0.3708
C511       C    0.8889836815    0.0957028791    0.5342375770          0.3708
C512       C    0.9668489758    0.1340605718    0.5266028871          0.3708
H513       H    0.0642211162    0.2419389922    0.5175129673          0.3708
H514       H    0.8623526922    0.2467528746    0.5381021537          0.3708
H515       H    0.7932094426    0.1084342957    0.5440856541          0.3708
H516       H    0.9950778666    0.1036204133    0.5234964677          0.3708
C497       C    0.8635852983    0.4819765920    0.4543901822          0.3708
C498       C    0.8753528244    0.4408647484    0.4791435534          0.3708
C499       C    0.8189176404    0.4015956438    0.5028532414          0.3708
C500       C    0.7507149302    0.4034383827    0.5018095582          0.3708
C501       C    0.7389474041    0.4445502262    0.4770561870          0.3708
C502       C    0.7953825882    0.4838193309    0.4533464990          0.3708
H503       H    0.9053619930    0.5110459292    0.4368388547          0.3708
H504       H    0.8276261353    0.3711635605    0.5211763491          0.3708
H505       H    0.7089382355    0.3743690455    0.5193608856          0.3708
H506       H    0.7866740932    0.5142514141    0.4350233913          0.3708
C487       C    0.2416747009    0.3817653021    0.4642616962          0.3708
C488       C    0.2389512503    0.4445589874    0.4770634144          0.3708
C489       C    0.3044276872    0.5055035311    0.4909002918          0.3708
C490       C    0.3726275747    0.5036543896    0.4919354511          0.3708
C491       C    0.3753510253    0.4408607044    0.4791337329          0.3708
C492       C    0.3098745884    0.3799161606    0.4652968554          0.3708
H493       H    0.1932051308    0.3366505100    0.4540188128          0.3708
H494       H    0.3024138709    0.5519851225    0.5003765161          0.3708
H495       H    0.4210971449    0.5487691818    0.5021783344          0.3708
H496       H    0.3118884048    0.3334345693    0.4558206312          0.3708
C477       C    0.9044375429    0.7100243071    0.5077694234          0.3708
C478       C    0.9685008584    0.7547209853    0.5273345755          0.3708
C479       C    0.9928406614    0.7199353506    0.5503442388          0.3708
C480       C    0.9531171489    0.6404530376    0.5537887501          0.3708
C481       C    0.8890538334    0.5957563594    0.5342235980          0.3708
C482       C    0.8647140305    0.6305419941    0.5112139347          0.3708
H483       H    0.8864197667    0.7357747120    0.4907362959          0.3708
H484       H    0.0402608701    0.7530185721    0.5648270231          0.3708
H485       H    0.9711349251    0.6147026327    0.5708218776          0.3708
H486       H    0.8172938217    0.5974587726    0.4967311504          0.3708
C467       C    0.7930625361    0.9791860756    0.4520142416          0.3708
C468       C    0.7389534122    0.9445259297    0.4770291303          0.3708
C469       C    0.7530541798    0.9080365198    0.5030847081          0.3708
C470       C    0.8212640714    0.9062072558    0.5041253972          0.3708
C471       C    0.8753731954    0.9408674018    0.4791105085          0.3708
C472       C    0.8612724277    0.9773568116    0.4530549307          0.3708
H473       H    0.7826243055    0.0061977167    0.4327263464          0.3708
H474       H    0.7130032448    0.8823800481    0.5216014644          0.3708
H475       H    0.8317023020    0.8791956147    0.5234132925          0.3708
H476       H    0.9013233627    0.0030132833    0.4345381744          0.3708
C457       C    0.3053424871    0.0070471144    0.4894395571          0.3708
C458       C    0.2389697486    0.9445576046    0.4770322859          0.3708
C459       C    0.2407901227    0.8802062064    0.4656626652          0.3708
C460       C    0.3089832353    0.8783443181    0.4667003157          0.3708
C461       C    0.3753559737    0.9408338280    0.4791075870          0.3708
C462       C    0.3735355996    0.0051852261    0.4904772076          0.3708
H463       H    0.3039949374    0.0546838637    0.4978560295          0.3708
H464       H    0.1916613152    0.8339496568    0.4564784873          0.3708
H465       H    0.3103307849    0.8307075688    0.4582838433          0.3708
H466       H    0.4226644071    0.0514417758    0.4996613855          0.3708
C447       C    0.2772266804    0.3520263473    0.1778004788          0.3708
C448       C    0.3120194913    0.4112547979    0.2007350953          0.3708
C449       C    0.2673432516    0.4307528248    0.2202187331          0.3708
C450       C    0.1878742010    0.3910224012    0.2167677545          0.3708
C451       C    0.1530813901    0.3317939507    0.1938331380          0.3708
C452       C    0.1977576298    0.3122959237    0.1743495001          0.3708
H453       H    0.3102987019    0.3375927430    0.1633775261          0.3708
H454       H    0.2930953527    0.4745941305    0.2371954714          0.3708
H455       H    0.1548021794    0.4054560056    0.2311907072          0.3708
H456       H    0.1720055287    0.2684546181    0.1573727619          0.3708
C437       C    0.6395373049    0.5144168394    0.3790872642          0.3708
C438       C    0.5882545604    0.5249298933    0.3983647090          0.3708
C439       C    0.5339047223    0.5384912531    0.3833348805          0.3708
C440       C    0.5308376286    0.5415395590    0.3490276072          0.3708
C441       C    0.5821203731    0.5310265051    0.3297501624          0.3708
C442       C    0.6364702112    0.5174651453    0.3447799910          0.3708
H443       H    0.6797703019    0.5043779107    0.3902132412          0.3708
H444       H    0.4959436971    0.5462734074    0.3976035010          0.3708
H445       H    0.4906046316    0.5515784877    0.3379016303          0.3708
H446       H    0.6744312364    0.5096829910    0.3305113705          0.3708
C427       C    0.5681393122    0.8199705251    0.2494922740          0.3708
C428       C    0.4980681268    0.8181210224    0.2489719034          0.3708
C429       C    0.4298413945    0.7480590170    0.2494920225          0.3708
C430       C    0.4316858475    0.6798465143    0.2505325122          0.3708
C431       C    0.5017570330    0.6816960170    0.2510528828          0.3708
C432       C    0.5699837653    0.7517580224    0.2505327637          0.3708
H433       H    0.6186448154    0.8718346070    0.2491072508          0.3708
H434       H    0.3779727929    0.7466878043    0.2491068625          0.3708
H435       H    0.3811803444    0.6279824323    0.2509175354          0.3708
H436       H    0.6218523669    0.7531292350    0.2509179237          0.3708
C417       C    0.5699830039    0.2517433823    0.2502207710          0.3708
C418       C    0.5017617616    0.1816984026    0.2510516867          0.3708
C419       C    0.4316924952    0.1798641180    0.2508429438          0.3708
C420       C    0.4298444710    0.2480748132    0.2498032852          0.3708
C421       C    0.4980657133    0.3181197929    0.2489723695          0.3708
C422       C    0.5681349797    0.3199540774    0.2491811124          0.3708
H423       H    0.6218524608    0.2531012293    0.2503752950          0.3708
H424       H    0.3811931566    0.1280170150    0.2514579780          0.3708
H425       H    0.3779750141    0.2467169662    0.2496487612          0.3708
H426       H    0.6186343183    0.3718011805    0.2485660782          0.3708
C407       C    0.2789434923    0.9061930996    0.1699242470          0.3708
C408       C    0.3119149628    0.9111921798    0.2007468723          0.3708
C409       C    0.2654158526    0.8764527692    0.2281250961          0.3708
C410       C    0.1859452719    0.8367142783    0.2246806947          0.3612
C411       C    0.1529738014    0.8317151980    0.1938580695          0.3708
C412       C    0.1994729116    0.8664546087    0.1664798456          0.3708
H413       H    0.3133649115    0.9319092867    0.1496572502          0.3708
H414       H    0.2898197463    0.8801519712    0.2509407602          0.3708
H415       H    0.1515238526    0.8109980912    0.2449476916          0.3708
H416       H    0.1750690178    0.8627554067    0.1436641815          0.3708
C397       C    0.6122705775    0.0982863656    0.3482059402          0.3708
C398       C    0.5821436293    0.0310304918    0.3297347241          0.3708
C399       C    0.5550760440    0.9607146422    0.3455706523          0.3708
C400       C    0.5581354069    0.9576546664    0.3798777968          0.3708
C401       C    0.5882623551    0.0249105402    0.3983490129          0.3708
C402       C    0.6153299404    0.0952263898    0.3825130847          0.3708
H403       H    0.6323076211    0.1503383582    0.3364832401          0.3708
H404       H    0.5327753275    0.9109298582    0.3318988249          0.3708
H405       H    0.5380983633    0.9056026739    0.3916004969          0.3708
H406       H    0.6376306570    0.1450111738    0.3961849120          0.3708
C387       C    0.7741894454    0.4497218382    0.1904554837          0.3708
C388       C    0.8119302601    0.4112285448    0.2007591859          0.3708
C389       C    0.7702019399    0.3330030762    0.2076122717          0.3708
C390       C    0.6907328050    0.2932709010    0.2041616552          0.3708
C391       C    0.6529919903    0.3317641944    0.1938579531          0.3708
C392       C    0.6947203105    0.4099896630    0.1870048673          0.3708
H393       H    0.8050792408    0.5076290033    0.1853824202          0.3708
H394       H    0.7981362362    0.3045080017    0.2152392523          0.3708
H395       H    0.6598430095    0.2353637359    0.2092347187          0.3708
H396       H    0.6667860142    0.4384847375    0.1793778867          0.3708
C377       C    0.0488701643    0.5637304419    0.3491824000          0.3708
C378       C    0.0820789654    0.5310255848    0.3297681152          0.3708
C379       C    0.1183676240    0.4952771931    0.3446608412          0.3708
C380       C    0.1214474816    0.4922336585    0.3789678520          0.3708
C381       C    0.0882386806    0.5249385157    0.3983821369          0.3708
C382       C    0.0519500219    0.5606869074    0.3834894109          0.3708
H383       H    0.0220071312    0.5901935371    0.3381579146          0.3708
H384       H    0.1429498090    0.4710680427    0.3302909278          0.3708
H385       H    0.1483105147    0.4657705634    0.3899923375          0.3708
H386       H    0.0273678369    0.5848960578    0.3978593242          0.3708
C367       C    0.9302928926    0.7481571126    0.2462089808          0.3708
C368       C    0.9981154872    0.8181794782    0.2489684859          0.3708
C369       C    0.0677452622    0.8199704515    0.2527765855          0.3708
C370       C    0.0695524425    0.7517390592    0.2538251801          0.3708
C371       C    0.0017298479    0.6817166936    0.2510656751          0.3708
C372       C    0.9321000729    0.6799257203    0.2472575754          0.3708
H373       H    0.8787487735    0.7468313272    0.2433899979          0.3708
H374       H    0.1179495092    0.8718008144    0.2548192819          0.3708
H375       H    0.1210965616    0.7530648447    0.2566441630          0.3708
H376       H    0.8818958259    0.6280953575    0.2452148791          0.3708
C357       C    0.0698413640    0.2516256571    0.2484227888          0.3708
C358       C    0.0018083529    0.1817564677    0.2510487263          0.3708
C359       C    0.9318901811    0.1800791362    0.2526431484          0.3708
C360       C    0.9300050205    0.2482709941    0.2516116331          0.3708
C361       C    0.9980380317    0.3181401836    0.2489856957          0.3708
C362       C    0.0679562034    0.3198175151    0.2473912735          0.3708
H363       H    0.1215989716    0.2528673181    0.2472425022          0.3708
H364       H    0.8815301754    0.1283621574    0.2545869085          0.3708
H365       H    0.8782474129    0.2470293332    0.2527919197          0.3708
H366       H    0.1183162092    0.3715344939    0.2454475134          0.3708
C347       C    0.6968569714    0.9022991460    0.1782045140          0.3708
C348       C    0.6530906328    0.8318241480    0.1938426575          0.3708
C349       C    0.6887947898    0.8010868628    0.2129255689          0.3708
C350       C    0.7682652855    0.8408245758    0.2163703367          0.3708
C351       C    0.8120316241    0.9112995738    0.2007321932          0.3708
C352       C    0.7763274670    0.9420368590    0.1816492818          0.3708
H353       H    0.6704266214    0.9250527207    0.1640782030          0.3708
H354       H    0.6564002315    0.7489205470    0.2245014711          0.3708
H355       H    0.7946956355    0.8180710011    0.2304966478          0.3708
H356       H    0.8087220254    0.9942031748    0.1700733797          0.3708
C337       C    0.0685462911    0.9596865171    0.3795987426          0.3708
C338       C    0.0883012691    0.0249728574    0.3983466611          0.3708
C339       C    0.1050079427    0.0933261364    0.3827873017          0.3708
C340       C    0.1019596384    0.0963930752    0.3484800237          0.3708
C341       C    0.0822046604    0.0311067349    0.3297321051          0.3708
C342       C    0.0654979868    0.9627534558    0.3452914646          0.3708
H343       H    0.0561790132    0.9090873365    0.3911167100          0.3708
H344       H    0.1196310359    0.1416530167    0.3966639519          0.3708
H345       H    0.1143269163    0.1469922558    0.3369620563          0.3708
H346       H    0.0508748936    0.9144265756    0.3314148143          0.3708
loop_
_geom_bond_atom_site_label_1
_geom_bond_atom_site_label_2
_geom_bond_distance
_geom_bond_site_symmetry_2
_ccdc_geom_bond_type
O1          Cu9 1.951       .   S
O1          C11 1.250       .   A
O2          Cu9 1.951       .   S
O2          C12 1.250       .   A
O3          Cu9 1.951       .   S
O3          C13 1.250       .   A
O4          Cu9 1.951       .   S
O4          C14 1.250       .   A
O5         Cu10 1.951       .   S
O5          C14 1.250       .   A
O6         Cu10 1.951       .   S
O6          C13 1.251       .   A
O7         Cu10 1.951       .   S
O7          C12 1.250       .   A
O8         Cu10 1.951       .   S
O8          C11 1.250       .   A
Cu9        Cu10 2.630       .   S
C11        C358 1.517       .   S
C12        C368 1.518       .   S
C13        C351 2.110       .   S
C14        C341 1.579       .   S
O15        Cu23 1.951       .   S
O15         C25 1.250       .   A
O16        Cu23 1.951       .   S
O16         C26 1.250       .   A
O17        Cu23 1.951       .   S
O17         C27 1.250       .   A
O18        Cu23 1.951       .   S
O18         C28 1.250       .   A
O19        Cu24 1.951       .   S
O19         C28 1.250       .   A
O20        Cu24 1.951       .   S
O20         C27 1.251       .   A
O21        Cu24 1.951       .   S
O21         C26 1.250       .   A
O22        Cu24 1.951       .   S
O22         C25 1.250       .   A
Cu23       Cu24 2.630       .   S
C25        C361 1.517   1_655   S
C26        C371 1.518   1_665   S
C27        C378 1.579       .   S
C28        C388 2.109       .   S
O29        Cu37 1.951       .   S
O29         C39 1.250       .   A
O30        Cu37 1.951       .   S
O30         C40 1.250       .   A
O31        Cu37 1.951       .   S
O31         C41 1.250       .   A
O32        Cu37 1.951       .   S
O32         C42 1.250       .   A
O33        Cu38 1.951       .   S
O33         C42 1.250       .   A
O34        Cu38 1.951       .   S
O34         C41 1.251       .   A
O35        Cu38 1.951       .   S
O35         C40 1.250       .   A
O36        Cu38 1.951       .   S
O36         C39 1.250       .   A
Cu37       Cu38 2.630       .   S
C39        C428 1.517       .   S
C40        C418 1.517       .   S
C41        C398 1.579       .   S
C42        C408 2.111       .   S
O43        Cu51 1.951       .   S
O43         C53 1.250       .   A
O44        Cu51 1.951       .   S
O44         C54 1.250       .   A
O45        Cu51 1.951       .   S
O45         C55 1.250       .   A
O46        Cu51 1.951       .   S
O46         C56 1.250       .   A
O47        Cu52 1.951       .   S
O47         C56 1.250       .   A
O48        Cu52 1.951       .   S
O48         C55 1.251       .   A
O49        Cu52 1.951       .   S
O49         C54 1.250       .   A
O50        Cu52 1.951       .   S
O50         C53 1.250       .   A
Cu51       Cu52 2.630       .   S
C53        C431 1.517       .   S
C54        C421 1.517   1_545   S
C55        C448 2.109       .   S
C56        C441 1.579       .   S
O57        Cu65 1.951       .   S
O57         C67 1.250       .   A
O58        Cu65 1.951       .   S
O58         C68 1.250       .   A
O59        Cu65 1.951       .   S
O59         C69 1.250       .   A
O60        Cu65 1.951       .   S
O60         C70 1.250       .   A
O61        Cu66 1.951       .   S
O61         C70 1.250       .   A
O62        Cu66 1.951       .   S
O62         C69 1.251       .   A
O63        Cu66 1.951       .   S
O63         C68 1.250       .   A
O64        Cu66 1.951       .   S
O64         C67 1.250       .   A
Cu65       Cu66 2.630       .   S
C67        C458 1.518       .   S
C68        C471 1.518       .   S
C69        C478 2.110       .   S
C70        C338 1.579   1_565   S
O71        Cu79 1.951       .   S
O71         C81 1.250       .   A
O72        Cu79 1.951       .   S
O72         C82 1.250       .   A
O73        Cu79 1.951       .   S
O73         C83 1.250       .   A
O74        Cu79 1.951       .   S
O74         C84 1.250       .   A
O75        Cu80 1.951       .   S
O75         C84 1.250       .   A
O76        Cu80 1.951       .   S
O76         C83 1.251       .   A
O77        Cu80 1.951       .   S
O77         C82 1.250       .   A
O78        Cu80 1.951       .   S
O78         C81 1.250       .   A
Cu79       Cu80 2.630       .   S
C81        C498 1.518       .   S
C82        C488 1.518       .   S
C83        C381 1.579   1_455   S
C84        C508 2.111       .   S
O85        Cu93 1.951       .   S
O85         C95 1.250       .   A
O86        Cu93 1.951       .   S
O86         C96 1.250       .   A
O87        Cu93 1.951       .   S
O87         C97 1.250       .   A
O88        Cu93 1.951       .   S
O88         C98 1.250       .   A
O89        Cu94 1.951       .   S
O89         C98 1.250       .   A
O90        Cu94 1.951       .   S
O90         C97 1.251       .   A
O91        Cu94 1.951       .   S
O91         C96 1.250       .   A
O92        Cu94 1.951       .   S
O92         C95 1.250       .   A
Cu93       Cu94 2.630       .   S
C95        C461 1.518       .   S
C96        C468 1.518   1_655   S
C97        C401 1.579       .   S
C98        C518 2.111       .   S
O99       Cu107 1.951       .   S
O99        C109 1.250       .   A
O100      Cu107 1.951       .   S
O100       C110 1.250       .   A
O101      Cu107 1.951       .   S
O101       C111 1.250       .   A
O102      Cu107 1.951       .   S
O102       C112 1.250       .   A
O103      Cu108 1.951       .   S
O103       C112 1.250       .   A
O104      Cu108 1.951       .   S
O104       C111 1.251       .   A
O105      Cu108 1.951       .   S
O105       C110 1.250       .   A
O106      Cu108 1.951       .   S
O106       C109 1.250       .   A
Cu107     Cu108 2.630       .   S
C109       C491 1.518       .   S
C110       C501 1.518   1_655   S
C111       C438 1.579       .   S
C112       C528 2.111       .   S
O113      Cu121 1.951       .   S
O113       C123 1.250       .   A
O114      Cu121 1.951       .   S
O114       C124 1.250       .   A
O115      Cu121 1.951       .   S
O115       C125 1.250       .   A
O116      Cu121 1.951       .   S
O116       C126 1.250       .   A
O117      Cu122 1.951       .   S
O117       C126 1.250       .   A
O118      Cu122 1.951       .   S
O118       C125 1.251       .   A
O119      Cu122 1.951       .   S
O119       C124 1.250       .   A
O120      Cu122 1.951       .   S
O120       C123 1.250       .   A
Cu121     Cu122 2.630       .   S
C123       C548 1.517       .   S
C124       C561 1.518       .   S
C125       C348 2.110   1_665   S
C126       C541 1.580       .   S
O127      Cu135 1.951       .   S
O127       C137 1.250       .   A
O128      Cu135 1.951       .   S
O128       C138 1.250       .   A
O129      Cu135 1.951       .   S
O129       C139 1.250       .   A
O130      Cu135 1.951       .   S
O130       C140 1.250       .   A
O131      Cu136 1.951       .   S
O131       C140 1.250       .   A
O132      Cu136 1.951       .   S
O132       C139 1.251       .   A
O133      Cu136 1.951       .   S
O133       C138 1.250       .   A
O134      Cu136 1.951       .   S
O134       C137 1.250       .   A
Cu135     Cu136 2.630       .   S
C137       C558 1.518       .   S
C138       C551 1.517   1_545   S
C139       C391 2.109       .   S
C140       C568 1.580       .   S
O141      Cu149 1.951       .   S
O141       C151 1.250       .   A
O142      Cu149 1.951       .   S
O142       C152 1.250       .   A
O143      Cu149 1.951       .   S
O143       C153 1.250       .   A
O144      Cu149 1.951       .   S
O144       C154 1.250       .   A
O145      Cu150 1.951       .   S
O145       C154 1.250       .   A
O146      Cu150 1.951       .   S
O146       C153 1.251       .   A
O147      Cu150 1.951       .   S
O147       C152 1.250       .   A
O148      Cu150 1.951       .   S
O148       C151 1.250       .   A
Cu149     Cu150 2.630       .   S
C151       C588 1.518       .   S
C152       C598 1.517       .   S
C153       C411 2.111   1_655   S
C154       C578 1.580       .   S
O155      Cu163 1.951       .   S
O155       C165 1.250       .   A
O156      Cu163 1.951       .   S
O156       C166 1.250       .   A
O157      Cu163 1.951       .   S
O157       C167 1.250       .   A
O158      Cu163 1.951       .   S
O158       C168 1.250       .   A
O159      Cu164 1.951       .   S
O159       C168 1.250       .   A
O160      Cu164 1.951       .   S
O160       C167 1.251       .   A
O161      Cu164 1.951       .   S
O161       C166 1.250       .   A
O162      Cu164 1.951       .   S
O162       C165 1.250       .   A
Cu163     Cu164 2.630       .   S
C165       C601 1.517       .   S
C166       C591 1.518   1_545   S
C167       C451 2.109   1_655   S
C168       C608 1.580       .   S
O169      Cu177 1.951       .   S
O169       C179 1.250       .   A
O170      Cu177 1.951       .   S
O170       C180 1.250       .   A
O171      Cu177 1.951       .   S
O171       C181 1.250       .   A
O172      Cu177 1.951       .   S
O172       C182 1.250       .   A
O173      Cu178 1.951       .   S
O173       C182 1.250       .   A
O174      Cu178 1.951       .   S
O174       C181 1.251       .   A
O175      Cu178 1.951       .   S
O175       C180 1.250       .   A
O176      Cu178 1.951       .   S
O176       C179 1.250       .   A
Cu177     Cu178 2.630       .   S
C179       C628 1.518       .   S
C180       C638 1.519       .   S
C181       C538 1.580   1_556   S
C182       C618 2.111       .   S
O183      Cu191 1.951       .   S
O183       C193 1.250       .   A
O184      Cu191 1.951       .   S
O184       C194 1.250       .   A
O185      Cu191 1.951       .   S
O185       C195 1.250       .   A
O186      Cu191 1.951       .   S
O186       C196 1.250       .   A
O187      Cu192 1.951       .   S
O187       C196 1.250       .   A
O188      Cu192 1.951       .   S
O188       C195 1.251       .   A
O189      Cu192 1.951       .   S
O189       C194 1.250       .   A
O190      Cu192 1.951       .   S
O190       C193 1.250       .   A
Cu191     Cu192 2.630       .   S
C193       C658 1.518       .   S
C194       C668 1.518       .   S
C195       C571 1.580   1_556   S
C196       C648 2.111       .   S
O197      Cu205 1.951       .   S
O197       C207 1.250       .   A
O198      Cu205 1.951       .   S
O198       C208 1.250       .   A
O199      Cu205 1.951       .   S
O199       C209 1.250       .   A
O200      Cu205 1.951       .   S
O200       C210 1.250       .   A
O201      Cu206 1.951       .   S
O201       C210 1.250       .   A
O202      Cu206 1.951       .   S
O202       C209 1.251       .   A
O203      Cu206 1.951       .   S
O203       C208 1.250       .   A
O204      Cu206 1.951       .   S
O204       C207 1.250       .   A
Cu205     Cu206 2.630       .   S
C207       C671 1.518   1_665   S
C208       C661 1.518       .   S
C209       C581 1.580   1_556   S
C210       C678 2.111       .   S
O211      Cu219 1.951       .   S
O211       C221 1.250       .   A
O212      Cu219 1.951       .   S
O212       C222 1.250       .   A
O213      Cu219 1.951       .   S
O213       C223 1.250       .   A
O214      Cu219 1.951       .   S
O214       C224 1.250       .   A
O215      Cu220 1.951       .   S
O215       C224 1.250       .   A
O216      Cu220 1.951       .   S
O216       C223 1.251       .   A
O217      Cu220 1.951       .   S
O217       C222 1.250       .   A
O218      Cu220 1.951       .   S
O218       C221 1.250       .   A
Cu219     Cu220 2.630       .   S
C221       C641 1.519   1_655   S
C222       C631 1.518   1_545   S
C223       C611 1.580   1_556   S
C224       C688 2.111       .   S
O225      Cu233 1.951       .   S
O225       C235 1.250       .   A
O226      Cu233 1.951       .   S
O226       C236 1.250       .   A
O227      Cu233 1.951       .   S
O227       C237 1.250       .   A
O228      Cu233 1.951       .   S
O228       C238 1.250       .   A
O229      Cu234 1.951       .   S
O229       C238 1.250       .   A
O230      Cu234 1.951       .   S
O230       C237 1.251       .   A
O231      Cu234 1.951       .   S
O231       C236 1.250       .   A
O232      Cu234 1.951       .   S
O232       C235 1.250       .   A
Cu233     Cu234 2.630       .   S
C235       C708 1.518       .   S
C236       C718 1.519       .   S
C237       C481 2.110   1_655   S
C238       C701 1.580       .   S
O239      Cu247 1.951       .   S
O239       C249 1.250       .   A
O240      Cu247 1.951       .   S
O240       C250 1.250       .   A
O241      Cu247 1.951       .   S
O241       C251 1.250       .   A
O242      Cu247 1.951       .   S
O242       C252 1.250       .   A
O243      Cu248 1.951       .   S
O243       C252 1.250       .   A
O244      Cu248 1.951       .   S
O244       C251 1.251       .   A
O245      Cu248 1.951       .   S
O245       C250 1.250       .   A
O246      Cu248 1.951       .   S
O246       C249 1.250       .   A
Cu247     Cu248 2.630       .   S
C249       C738 1.518       .   S
C250       C748 1.518       .   S
C251       C511 2.111   1_665   S
C252       C728 1.580       .   S
O253      Cu261 1.951       .   S
O253       C263 1.250       .   A
O254      Cu261 1.951       .   S
O254       C264 1.250       .   A
O255      Cu261 1.951       .   S
O255       C265 1.250       .   A
O256      Cu261 1.951       .   S
O256       C266 1.250       .   A
O257      Cu262 1.951       .   S
O257       C266 1.250       .   A
O258      Cu262 1.951       .   S
O258       C265 1.251       .   A
O259      Cu262 1.951       .   S
O259       C264 1.250       .   A
O260      Cu262 1.951       .   S
O260       C263 1.250       .   A
Cu261     Cu262 2.630       .   S
C263       C721 1.519       .   S
C264       C711 1.518   1_455   S
C265       C521 2.111       .   S
C266       C758 1.580       .   S
O267      Cu275 1.951       .   S
O267       C277 1.250       .   A
O268      Cu275 1.951       .   S
O268       C278 1.250       .   A
O269      Cu275 1.951       .   S
O269       C279 1.250       .   A
O270      Cu275 1.951       .   S
O270       C280 1.250       .   A
O271      Cu276 1.951       .   S
O271       C280 1.250       .   A
O272      Cu276 1.951       .   S
O272       C279 1.251       .   A
O273      Cu276 1.951       .   S
O273       C278 1.250       .   A
O274      Cu276 1.951       .   S
O274       C277 1.250       .   A
Cu275     Cu276 2.630       .   S
C277       C751 1.518       .   S
C278       C741 1.518   1_455   S
C279       C531 2.111   1_565   S
C280       C768 1.580       .   S
O281      Cu289 1.951       .   S
O281       C291 1.250       .   A
O282      Cu289 1.951       .   S
O282       C292 1.250       .   A
O283      Cu289 1.951       .   S
O283       C293 1.250       .   A
O284      Cu289 1.951       .   S
O284       C294 1.250       .   A
O285      Cu290 1.951       .   S
O285       C294 1.250       .   A
O286      Cu290 1.951       .   S
O286       C293 1.251       .   A
O287      Cu290 1.951       .   S
O287       C292 1.250       .   A
O288      Cu290 1.951       .   S
O288       C291 1.250       .   A
Cu289     Cu290 2.630       .   S
C291       C778 1.518       .   S
C292       C788 1.519       .   S
C293       C698 1.580       .   S
C294       C621 2.111       .   S
O295      Cu303 1.951       .   S
O295       C305 1.250       .   A
O296      Cu303 1.951       .   S
O296       C306 1.250       .   A
O297      Cu303 1.951       .   S
O297       C307 1.250       .   A
O298      Cu303 1.951       .   S
O298       C308 1.250       .   A
O299      Cu304 1.951       .   S
O299       C308 1.250       .   A
O300      Cu304 1.951       .   S
O300       C307 1.251       .   A
O301      Cu304 1.951       .   S
O301       C306 1.250       .   A
O302      Cu304 1.951       .   S
O302       C305 1.250       .   A
Cu303     Cu304 2.630       .   S
C305       C808 1.518       .   S
C306       C798 1.519       .   S
C307       C651 2.111   1_565   S
C308       C731 1.580       .   S
O309      Cu317 1.951       .   S
O309       C319 1.250       .   A
O310      Cu317 1.951       .   S
O310       C320 1.250       .   A
O311      Cu317 1.951       .   S
O311       C321 1.250       .   A
O312      Cu317 1.951       .   S
O312       C322 1.250       .   A
O313      Cu318 1.951       .   S
O313       C322 1.250       .   A
O314      Cu318 1.951       .   S
O314       C321 1.251       .   A
O315      Cu318 1.951       .   S
O315       C320 1.250       .   A
O316      Cu318 1.951       .   S
O316       C319 1.250       .   A
Cu317     Cu318 2.630       .   S
C319       C811 1.518       .   S
C320       C801 1.519   1_445   S
C321       C761 1.580       .   S
C322       C681 2.111   1_455   S
O323      Cu331 1.951       .   S
O323       C333 1.250       .   A
O324      Cu331 1.951       .   S
O324       C334 1.250       .   A
O325      Cu331 1.951       .   S
O325       C335 1.250       .   A
O326      Cu331 1.951       .   S
O326       C336 1.250       .   A
O327      Cu332 1.951       .   S
O327       C336 1.250       .   A
O328      Cu332 1.951       .   S
O328       C335 1.251       .   A
O329      Cu332 1.951       .   S
O329       C334 1.250       .   A
O330      Cu332 1.951       .   S
O330       C333 1.250       .   A
Cu331     Cu332 2.630       .   S
C333       C781 1.518   1_455   S
C334       C791 1.519   1_565   S
C335       C691 2.111   1_465   S
C336       C771 1.580       .   S
C807       C808 1.540       .   A
C807       C812 1.540       .   A
C807       H813 1.140       .   S
C808       C809 1.540       .   A
C809       C810 1.540       .   A
C809       H814 1.140       .   S
C810       C811 1.540       .   A
C810       H815 1.140       .   S
C811       C812 1.540       .   A
C812       H816 1.140       .   S
C797       C798 1.540       .   A
C797       C802 1.540       .   A
C797       H803 1.140       .   S
C798       C799 1.540       .   A
C799       C800 1.540       .   A
C799       H804 1.140       .   S
C800       C801 1.540       .   A
C800       H805 1.140       .   S
C801       C802 1.540       .   A
C802       H806 1.140       .   S
C787       C788 1.540       .   A
C787       C792 1.540       .   A
C787       H793 1.140       .   S
C788       C789 1.540       .   A
C789       C790 1.540       .   A
C789       H794 1.140       .   S
C790       C791 1.540       .   A
C790       H795 1.140       .   S
C791       C792 1.540       .   A
C792       H796 1.140       .   S
C777       C778 1.540       .   A
C777       C782 1.540       .   A
C777       H783 1.140       .   S
C778       C779 1.540       .   A
C779       C780 1.540       .   A
C779       H784 1.140       .   S
C780       C781 1.540       .   A
C780       H785 1.140       .   S
C781       C782 1.540       .   A
C782       H786 1.140       .   S
C767       C768 1.540       .   A
C767       C772 1.540       .   A
C767       H773 1.140       .   S
C768       C769 1.540       .   A
C769       C770 1.540       .   A
C769       H774 1.140       .   S
C770       C771 1.540       .   A
C770       H775 1.140       .   S
C771       C772 1.540       .   A
C772       H776 1.140       .   S
C757       C758 1.540       .   A
C757       C762 1.540       .   A
C757       H763 1.140       .   S
C758       C759 1.540       .   A
C759       C760 1.540       .   A
C759       H764 1.140       .   S
C760       C761 1.540       .   A
C760       H765 1.140       .   S
C761       C762 1.540       .   A
C762       H766 1.140       .   S
C747       C748 1.540       .   A
C747       C752 1.540       .   A
C747       H753 1.140       .   S
C748       C749 1.540       .   A
C749       C750 1.540       .   A
C749       H754 1.140       .   S
C750       C751 1.540       .   A
C750       H755 1.140       .   S
C751       C752 1.540       .   A
C752       H756 1.140       .   S
C737       C738 1.540       .   A
C737       C742 1.540       .   A
C737       H743 1.140       .   S
C738       C739 1.540       .   A
C739       C740 1.540       .   A
C739       H744 1.140       .   S
C740       C741 1.540       .   A
C740       H745 1.140       .   S
C741       C742 1.540       .   A
C742       H746 1.140       .   S
C727       C728 1.540       .   A
C727       C732 1.540       .   A
C727       H733 1.140       .   S
C728       C729 1.540       .   A
C729       C730 1.540       .   A
C729       H734 1.140       .   S
C730       C731 1.540       .   A
C730       H735 1.140       .   S
C731       C732 1.540       .   A
C732       H736 1.140       .   S
C717       C718 1.540       .   A
C717       C722 1.540       .   A
C717       H723 1.140       .   S
C718       C719 1.540       .   A
C719       C720 1.540       .   A
C719       H724 1.140       .   S
C720       C721 1.540       .   A
C720       H725 1.140       .   S
C721       C722 1.540       .   A
C722       H726 1.140       .   S
C707       C708 1.540       .   A
C707       C712 1.540       .   A
C707       H713 1.140       .   S
C708       C709 1.540       .   A
C709       C710 1.540       .   A
C709       H714 1.140       .   S
C710       C711 1.540       .   A
C710       H715 1.140       .   S
C711       C712 1.540       .   A
C712       H716 1.140       .   S
C697       C698 1.540       .   A
C697       C702 1.540       .   A
C697       H703 1.140       .   S
C698       C699 1.540       .   A
C699       C700 1.540       .   A
C699       H704 1.140       .   S
C700       C701 1.540       .   A
C700       H705 1.140       .   S
C701       C702 1.540       .   A
C702       H706 1.140       .   S
C687       C688 1.540       .   A
C687       C692 1.540       .   A
C687       H693 1.140       .   S
C688       C689 1.540       .   A
C689       C690 1.540       .   A
C689       H694 1.140       .   S
C690       C691 1.540       .   A
C690       H695 1.140       .   S
C691       C692 1.540       .   A
C692       H696 1.140       .   S
C677       C678 1.540       .   A
C677       C682 1.540       .   A
C677       H683 1.140       .   S
C678       C679 1.540       .   A
C679       C680 1.540       .   A
C679       H684 1.140       .   S
C680       C681 1.540       .   A
C680       H685 1.140       .   S
C681       C682 1.540       .   A
C682       H686 1.140       .   S
C667       C668 1.540       .   A
C667       C672 1.540       .   A
C667       H673 1.140       .   S
C668       C669 1.540       .   A
C669       C670 1.540       .   A
C669       H674 1.140       .   S
C670       C671 1.540       .   A
C670       H675 1.140       .   S
C671       C672 1.540       .   A
C672       H676 1.140       .   S
C657       C658 1.540       .   A
C657       C662 1.540       .   A
C657       H663 1.140       .   S
C658       C659 1.540       .   A
C659       C660 1.540       .   A
C659       H664 1.140       .   S
C660       C661 1.540       .   A
C660       H665 1.140       .   S
C661       C662 1.540       .   A
C662       H666 1.140       .   S
C647       C648 1.540       .   A
C647       C652 1.540       .   A
C647       H653 1.140       .   S
C648       C649 1.540       .   A
C649       C650 1.540       .   A
C649       H654 1.140       .   S
C650       C651 1.540       .   A
C650       H655 1.140       .   S
C651       C652 1.540       .   A
C652       H656 1.140       .   S
C637       C638 1.540       .   A
C637       C642 1.540       .   A
C637       H643 1.140       .   S
C638       C639 1.540       .   A
C639       C640 1.540       .   A
C639       H644 1.140       .   S
C640       C641 1.540       .   A
C640       H645 1.140       .   S
C641       C642 1.540       .   A
C642       H646 1.140       .   S
C627       C628 1.540       .   A
C627       C632 1.540       .   A
C627       H633 1.140       .   S
C628       C629 1.540       .   A
C629       C630 1.540       .   A
C629       H634 1.140       .   S
C630       C631 1.540       .   A
C630       H635 1.140       .   S
C631       C632 1.540       .   A
C632       H636 1.140       .   S
C617       C618 1.540       .   A
C617       C622 1.540       .   A
C617       H623 1.140       .   S
C618       C619 1.540       .   A
C619       C620 1.540       .   A
C619       H624 1.140       .   S
C620       C621 1.540       .   A
C620       H625 1.140       .   S
C621       C622 1.540       .   A
C622       H626 1.140       .   S
C607       C608 1.540       .   A
C607       C612 1.540       .   A
C607       H613 1.140       .   S
C608       C609 1.540       .   A
C609       C610 1.540       .   A
C609       H614 1.140       .   S
C610       C611 1.540       .   A
C610       H615 1.140       .   S
C611       C612 1.540       .   A
C612       H616 1.140       .   S
C597       C598 1.540       .   A
C597       C602 1.540       .   A
C597       H603 1.140       .   S
C598       C599 1.540       .   A
C599       C600 1.540       .   A
C599       H604 1.140       .   S
C600       C601 1.540       .   A
C600       H605 1.140       .   S
C601       C602 1.540       .   A
C602       H606 1.140       .   S
C587       C588 1.540       .   A
C587       C592 1.540       .   A
C587       H593 1.140       .   S
C588       C589 1.540       .   A
C589       C590 1.540       .   A
C589       H594 1.140       .   S
C590       C591 1.540       .   A
C590       H595 1.140       .   S
C591       C592 1.540       .   A
C592       H596 1.140       .   S
C577       C578 1.540       .   A
C577       C582 1.540       .   A
C577       H583 1.140       .   S
C578       C579 1.540       .   A
C579       C580 1.540       .   A
C579       H584 1.140       .   S
C580       C581 1.540       .   A
C580       H585 1.140       .   S
C581       C582 1.540       .   A
C582       H586 1.140       .   S
C567       C568 1.540       .   A
C567       C572 1.540       .   A
C567       H573 1.140       .   S
C568       C569 1.540       .   A
C569       C570 1.540       .   A
C569       H574 1.140       .   S
C570       C571 1.540       .   A
C570       H575 1.140       .   S
C571       C572 1.540       .   A
C572       H576 1.140       .   S
C557       C558 1.540       .   A
C557       C562 1.540       .   A
C557       H563 1.140       .   S
C558       C559 1.540       .   A
C559       C560 1.540       .   A
C559       H564 1.140       .   S
C560       C561 1.540       .   A
C560       H565 1.140       .   S
C561       C562 1.540       .   A
C562       H566 1.140       .   S
C547       C548 1.540       .   A
C547       C552 1.540       .   A
C547       H553 1.140       .   S
C548       C549 1.540       .   A
C549       C550 1.540       .   A
C549       H554 1.140       .   S
C550       C551 1.540       .   A
C550       H555 1.140       .   S
C551       C552 1.540       .   A
C552       H556 1.140       .   S
C537       C538 1.540       .   A
C537       C542 1.540       .   A
C537       H543 1.140       .   S
C538       C539 1.540       .   A
C539       C540 1.540       .   A
C539       H544 1.140       .   S
C540       C541 1.540       .   A
C540       H545 1.140       .   S
C541       C542 1.540       .   A
C542       H546 1.140       .   S
C527       C528 1.540       .   A
C527       C532 1.540       .   A
C527       H533 1.140       .   S
C528       C529 1.540       .   A
C529       C530 1.540       .   A
C529       H534 1.140       .   S
C530       C531 1.540       .   A
C530       H535 1.140       .   S
C531       C532 1.540       .   A
C532       H536 1.140       .   S
C517       C518 1.540       .   A
C517       C522 1.540       .   A
C517       H523 1.140       .   S
C518       C519 1.540       .   A
C519       C520 1.540       .   A
C519       H524 1.140       .   S
C520       C521 1.540       .   A
C520       H525 1.140       .   S
C521       C522 1.540       .   A
C522       H526 1.140       .   S
C507       C508 1.540       .   A
C507       C512 1.540       .   A
C507       H513 1.140       .   S
C508       C509 1.540       .   A
C509       C510 1.540       .   A
C509       H514 1.140       .   S
C510       C511 1.540       .   A
C510       H515 1.140       .   S
C511       C512 1.540       .   A
C512       H516 1.140       .   S
C497       C498 1.540       .   A
C497       C502 1.540       .   A
C497       H503 1.140       .   S
C498       C499 1.540       .   A
C499       C500 1.540       .   A
C499       H504 1.140       .   S
C500       C501 1.540       .   A
C500       H505 1.140       .   S
C501       C502 1.540       .   A
C502       H506 1.140       .   S
C487       C488 1.540       .   A
C487       C492 1.540       .   A
C487       H493 1.140       .   S
C488       C489 1.540       .   A
C489       C490 1.540       .   A
C489       H494 1.140       .   S
C490       C491 1.540       .   A
C490       H495 1.140       .   S
C491       C492 1.540       .   A
C492       H496 1.140       .   S
C477       C478 1.540       .   A
C477       C482 1.540       .   A
C477       H483 1.140       .   S
C478       C479 1.540       .   A
C479       C480 1.540       .   A
C479       H484 1.140       .   S
C480       C481 1.540       .   A
C480       H485 1.140       .   S
C481       C482 1.540       .   A
C482       H486 1.140       .   S
C467       C468 1.540       .   A
C467       C472 1.540       .   A
C467       H473 1.140       .   S
C468       C469 1.540       .   A
C469       C470 1.540       .   A
C469       H474 1.140       .   S
C470       C471 1.540       .   A
C470       H475 1.140       .   S
C471       C472 1.540       .   A
C472       H476 1.140       .   S
C457       C458 1.540       .   A
C457       C462 1.540       .   A
C457       H463 1.140       .   S
C458       C459 1.540       .   A
C459       C460 1.540       .   A
C459       H464 1.140       .   S
C460       C461 1.540       .   A
C460       H465 1.140       .   S
C461       C462 1.540       .   A
C462       H466 1.140       .   S
C447       C448 1.540       .   A
C447       C452 1.540       .   A
C447       H453 1.140       .   S
C448       C449 1.540       .   A
C449       C450 1.540       .   A
C449       H454 1.140       .   S
C450       C451 1.540       .   A
C450       H455 1.140       .   S
C451       C452 1.540       .   A
C452       H456 1.140       .   S
C437       C438 1.540       .   A
C437       C442 1.540       .   A
C437       H443 1.140       .   S
C438       C439 1.540       .   A
C439       C440 1.540       .   A
C439       H444 1.140       .   S
C440       C441 1.540       .   A
C440       H445 1.140       .   S
C441       C442 1.540       .   A
C442       H446 1.140       .   S
C427       C428 1.540       .   A
C427       C432 1.540       .   A
C427       H433 1.140       .   S
C428       C429 1.540       .   A
C429       C430 1.540       .   A
C429       H434 1.140       .   S
C430       C431 1.540       .   A
C430       H435 1.140       .   S
C431       C432 1.540       .   A
C432       H436 1.140       .   S
C417       C418 1.540       .   A
C417       C422 1.540       .   A
C417       H423 1.140       .   S
C418       C419 1.540       .   A
C419       C420 1.540       .   A
C419       H424 1.140       .   S
C420       C421 1.540       .   A
C420       H425 1.140       .   S
C421       C422 1.540       .   A
C422       H426 1.140       .   S
C407       C408 1.540       .   A
C407       C412 1.540       .   A
C407       H413 1.140       .   S
C408       C409 1.540       .   A
C409       C410 1.540       .   A
C409       H414 1.140       .   S
C410       C411 1.540       .   A
C410       H415 1.140       .   S
C411       C412 1.540       .   A
C412       H416 1.140       .   S
C397       C398 1.540       .   A
C397       C402 1.540       .   A
C397       H403 1.140       .   S
C398       C399 1.540       .   A
C399       C400 1.540       .   A
C399       H404 1.140       .   S
C400       C401 1.540       .   A
C400       H405 1.140       .   S
C401       C402 1.540       .   A
C402       H406 1.140       .   S
C387       C388 1.540       .   A
C387       C392 1.540       .   A
C387       H393 1.140       .   S
C388       C389 1.540       .   A
C389       C390 1.540       .   A
C389       H394 1.140       .   S
C390       C391 1.540       .   A
C390       H395 1.140       .   S
C391       C392 1.540       .   A
C392       H396 1.140       .   S
C377       C378 1.540       .   A
C377       C382 1.540       .   A
C377       H383 1.140       .   S
C378       C379 1.540       .   A
C379       C380 1.540       .   A
C379       H384 1.140       .   S
C380       C381 1.540       .   A
C380       H385 1.140       .   S
C381       C382 1.540       .   A
C382       H386 1.140       .   S
C367       C368 1.540       .   A
C367       C372 1.540       .   A
C367       H373 1.140       .   S
C368       C369 1.540       .   A
C369       C370 1.540       .   A
C369       H374 1.140       .   S
C370       C371 1.540       .   A
C370       H375 1.140       .   S
C371       C372 1.540       .   A
C372       H376 1.140       .   S
C357       C358 1.540       .   A
C357       C362 1.540       .   A
C357       H363 1.140       .   S
C358       C359 1.540       .   A
C359       C360 1.540       .   A
C359       H364 1.140       .   S
C360       C361 1.540       .   A
C360       H365 1.140       .   S
C361       C362 1.540       .   A
C362       H366 1.140       .   S
C347       C348 1.540       .   A
C347       C352 1.540       .   A
C347       H353 1.140       .   S
C348       C349 1.540       .   A
C349       C350 1.540       .   A
C349       H354 1.140       .   S
C350       C351 1.540       .   A
C350       H355 1.140       .   S
C351       C352 1.540       .   A
C352       H356 1.140       .   S
C337       C338 1.540       .   A
C337       C342 1.540       .   A
C337       H343 1.140       .   S
C338       C339 1.540       .   A
C339       C340 1.540       .   A
C339       H344 1.140       .   S
C340       C341 1.540       .   A
C340       H345 1.140       .   S
C341       C342 1.540       .   A
C342       H346 1.140       .   S
