data_qzd_v1-4c_Cu_1_Ch_1-1B_4H_Ch
_audit_creation_date              2024-08-05
_audit_creation_method            'tobacco_3.0'
_symmetry_space_group_name_H-M    'P1'
_symmetry_Int_Tables_number       1
_symmetry_cell_setting            triclinic
loop_
_symmetry_equiv_pos_as_xyz
  x,y,z
_cell_length_a                    22.369286394107544
_cell_length_b                    22.369462396049023
_cell_length_c                    33.554319611926715
_cell_angle_alpha                 89.99985176320764
_cell_angle_beta                  89.99994009413454
_cell_angle_gamma                 119.9999999119411
loop_
_atom_site_label
_atom_site_type_symbol
_atom_site_fract_x
_atom_site_fract_y
_atom_site_fract_z
_atom_site_charge
O1         O    0.0286986350    0.9713023051    0.2754766620         -1.3557
O2         O    0.0286957577    0.9713018089    0.3911237031         -1.3655
O3         O    0.9419576243    0.8845660664    0.3333051001         -1.2517
O4         O    0.1154430949    0.0580443619    0.3332994808         -1.3358
O5         O    0.0580487022    0.1154402479    0.3332991157         -1.3313
O6         O    0.8845696481    0.9419681812    0.3333005220         -1.2439
O7         O    0.9713013650    0.0286976949    0.3911233380         -1.3737
O8         O    0.9713042423    0.0286981911    0.2754762969         -1.3567
Cu9       Cu    0.0339340161    0.9660635799    0.3333033660          1.0456
Cu10      Cu    0.9660659839    0.0339364201    0.3332966340          1.0433
C11        C    0.0000000308    0.0000000019    0.2584246737          0.3063
C12        C    0.9999999692    0.9999999981    0.4081753263          0.2977
C13        C    0.8876900595    0.8876900595    0.3332999427          0.2191
C14        C    0.1123099405    0.1123099405    0.3333000573          0.2819
O15        O    0.1154344245    0.5580380648    0.3332998125         -1.3557
O16        O    0.9419613610    0.3845673378    0.3332988659         -1.3655
O17        O    0.0286892333    0.4712976015    0.2754745962         -1.2517
O18        O    0.0287002346    0.4713014712    0.3911282957         -1.3358
O19        O    0.9713046291    0.5286961444    0.3911293222         -1.3313
O20        O    0.9713000411    0.5286985004    0.2754798378         -1.2439
O21        O    0.8845657555    0.4419620110    0.3332998924         -1.3689
O22        O    0.0580388190    0.6154327380    0.3333008390         -1.3567
Cu23      Cu    0.0339308585    0.4660603703    0.3332987385          1.0456
Cu24      Cu    0.9660693215    0.5339397056    0.3333009664          1.0433
C25        C    0.1123139430    0.6123138909    0.3332997482          0.3063
C26        C    0.8876862370    0.3876861849    0.3332999567          0.2977
C27        C    0.0000008333    0.5000007530    0.2584271344          0.2191
C28        C    0.9999993467    0.4999993228    0.4081725705          0.2819
O29        O    0.5286986580    0.9713022971    0.3911232670         -1.3557
O30        O    0.5286992041    0.9713051337    0.2754762260         -1.3655
O31        O    0.6154349215    0.0580432875    0.3332948305         -1.2517
O32        O    0.4419566262    0.8845578169    0.3333004467         -1.3358
O33        O    0.3845589338    0.9419504033    0.3333006639         -1.3313
O34        O    0.5580310004    0.1154294573    0.3332992606         -1.2439
O35        O    0.4713015117    0.0286977201    0.2754764431         -1.3689
O36        O    0.4713009656    0.0286948835    0.3911234841         -1.3567
Cu37      Cu    0.5339375729    0.9660670605    0.3332965766          1.0456
Cu38      Cu    0.4660625967    0.0339329567    0.3333031336          1.0433
C39        C    0.5000000506    0.0000000042    0.4081751814          0.3063
C40        C    0.5000001191    0.0000000130    0.2584245288          0.2977
C41        C    0.6123100253    0.1123099491    0.3332999143          0.2191
C42        C    0.3876901443    0.8876900681    0.3332997958          0.2819
O43        O    0.3845643218    0.4419633419    0.3332997557         -1.3557
O44        O    0.5580373853    0.6154340689    0.3332986109         -1.3655
O45        O    0.4713099553    0.5287043261    0.2754744403         -1.2517
O46        O    0.4712980695    0.5286994145    0.3911281398         -1.3358
O47        O    0.5286936750    0.4713047414    0.3911292322         -1.3313
O48        O    0.5286991474    0.4713034272    0.2754797478         -1.2439
O49        O    0.6154329908    0.5580393957    0.3332997033         -1.3689
O50        O    0.4419599273    0.3845686687    0.3333008481         -1.3567
Cu51      Cu    0.4660678878    0.5339410365    0.3332985766          1.0456
Cu52      Cu    0.5339294249    0.4660617012    0.3333008824          1.0433
C53        C    0.3876848034    0.3876875158    0.3332997535          0.3063
C54        C    0.6123125093    0.6123152218    0.3332997054          0.2977
C55        C    0.4999984856    0.5000013282    0.2584270115          0.2191
C56        C    0.4999988270    0.5000014094    0.4081724475          0.2819
O57        O    0.9713013852    0.9426050886    0.0577828652         -1.3557
O58        O    0.9713038183    0.9426074989    0.9421358241         -1.3655
O59        O    0.0580425151    0.9426098753    0.9999544237         -1.2517
O60        O    0.8845563618    0.9426027001    0.9999600498         -1.3358
O61        O    0.9419500769    0.0573925271    0.9999601276         -1.3313
O62        O    0.1154298137    0.0573995145    0.9999587145         -1.2439
O63        O    0.0286975333    0.0573973259    0.9421359019         -1.3689
O64        O    0.0286951002    0.0573949156    0.0577829429         -1.3567
Cu65      Cu    0.9660658438    0.9321310382    0.9999561874          1.0456
Cu66      Cu    0.0339330747    0.0678713763    0.9999625796          1.0433
C67        C    0.9999997161    0.0000011594    0.0748347099          0.3063
C68        C    0.9999992024    0.0000012551    0.9250840572          0.2977
C69        C    0.1123098417    0.0000012073    0.9999594365          0.2191
C70        C    0.8876890768    0.0000012073    0.9999593306          0.2819
O71        O    0.9713029001    0.4426079800    0.0577845769         -1.3557
O72        O    0.9713050162    0.4426101357    0.9421375359         -1.3655
O73        O    0.0580438715    0.4426126393    0.9999560722         -1.2517
O74        O    0.8845577183    0.4426054642    0.9999618248         -1.3358
O75        O    0.9419514333    0.5573952912    0.9999618183         -1.3313
O76        O    0.1154311701    0.5574022786    0.9999602788         -1.2439
O77        O    0.0286987313    0.5573999627    0.9421375295         -1.3689
O78        O    0.0286966151    0.5573978069    0.0577845705         -1.3567
Cu79      Cu    0.9660672002    0.4321338022    0.9999579069          1.0456
Cu80      Cu    0.0339344311    0.5678741404    0.9999641995          1.0433
C81        C    0.0000012777    0.5000040883    0.0748363795          0.3063
C82        C    0.0000003536    0.5000038544    0.9250857269          0.2977
C83        C    0.1123111982    0.5000039713    0.9999610243          0.2191
C84        C    0.8876904332    0.5000039713    0.9999610821          0.2819
O85        O    0.4713009828    0.9426051372    0.9421359810         -1.3557
O86        O    0.4713009027    0.9426074131    0.0577830221         -1.3655
O87        O    0.3845646109    0.9426098566    0.9999644257         -1.2517
O88        O    0.5580435890    0.9426026815    0.9999587932         -1.3358
O89        O    0.6154406037    0.0573925085    0.9999582839         -1.3313
O90        O    0.4419678544    0.0573994959    0.9999597034         -1.2439
O91        O    0.5286979174    0.0573972401    0.0577825128         -1.3689
O92        O    0.5286979976    0.0573949641    0.9421354717         -1.3567
Cu93      Cu    0.4660623627    0.9321310196    0.9999626981          1.0456
Cu94      Cu    0.5339365376    0.0678713577    0.9999557957          1.0433
C95        C    0.4999991826    0.0000012278    0.9250839206          0.3063
C96        C    0.4999997176    0.0000011495    0.0748345732          0.2977
C97        C    0.3876890676    0.0000011886    0.9999591982          0.2191
C98        C    0.6123098326    0.0000011886    0.9999592956          0.2819
O99        O    0.5286973070    0.5573971639    0.0577847318         -1.3557
O100       O    0.5286951784    0.5573949027    0.9421376908         -1.3655
O101       O    0.4419563294    0.5573924518    0.9999563346         -1.2517
O102       O    0.6154424826    0.5573996269    0.9999618722         -1.3358
O103       O    0.5580487676    0.4426098000    0.9999623766         -1.3313
O104       O    0.3845690308    0.4426028126    0.9999610521         -1.2439
O105       O    0.4713014634    0.4426050757    0.9421381952         -1.3689
O106       O    0.4713035919    0.4426073369    0.0577852362         -1.3567
Cu107     Cu    0.5339330006    0.5678712889    0.9999580152          1.0456
Cu108     Cu    0.4660657697    0.4321309507    0.9999649119          1.0433
C109       C    0.4999989312    0.5000010711    0.0748367898          0.3063
C110       C    0.4999998392    0.5000011685    0.9250861372          0.2977
C111       C    0.3876890027    0.5000011198    0.9999615738          0.2191
C112       C    0.6123097677    0.5000011198    0.9999613533          0.2819
O113       O    0.9426018870    0.8845669970    0.6666215567         -1.3557
O114       O    0.9426042235    0.0580393783    0.6666204598         -1.3655
O115       O    0.9426066837    0.9713123083    0.6087962653         -1.2517
O116       O    0.9425994147    0.9713003847    0.7244499648         -1.3358
O117       O    0.0573901448    0.0286948610    0.7244509167         -1.3313
O118       O    0.0573972261    0.0287003713    0.6088014322         -1.2439
O119       O    0.0573949536    0.1154338546    0.6666214117         -1.3689
O120       O    0.0573926171    0.9419614734    0.6666225086         -1.3567
Cu121     Cu    0.9321277172    0.9660703249    0.6666204144          1.0456
Cu122     Cu    0.0678691234    0.0339305267    0.6666225540          1.0433
C123       C    0.9999984203    0.8876870145    0.6666214772          0.3063
C124       C    0.9999984203    0.1123138371    0.6666214912          0.2977
C125       C    0.9999984810    0.0000002797    0.5917487662          0.2191
C126       C    0.9999983596    0.0000005719    0.7414942022          0.2819
O127       O    0.9425990567    0.3845655676    0.6666220541         -1.3557
O128       O    0.9426013932    0.5580379489    0.6666208362         -1.3655
O129       O    0.9426037435    0.4713107332    0.6087967022         -1.2517
O130       O    0.9425966942    0.4712991010    0.7244504017         -1.3358
O131       O    0.0573874243    0.5286935773    0.7244512809         -1.3313
O132       O    0.0573942859    0.5286987962    0.6088017965         -1.2439
O133       O    0.0573921233    0.6154324252    0.6666217155         -1.3689
O134       O    0.0573897868    0.4419600439    0.6666229333         -1.3567
Cu135     Cu    0.9321248869    0.4660688955    0.6666208579          1.0456
Cu136     Cu    0.0678662931    0.5339290973    0.6666229116          1.0433
C137       C    0.9999955900    0.3876855851    0.6666219561          0.3063
C138       C    0.9999955900    0.6123124077    0.6666218134          0.2977
C139       C    0.9999955085    0.4999986617    0.5917491668          0.2191
C140       C    0.9999956715    0.4999993312    0.7414946028          0.2819
O141       O    0.4426018203    0.8845669287    0.6666211801         -1.3557
O142       O    0.4426041568    0.0580393100    0.6666200822         -1.3655
O143       O    0.4426066251    0.9713122432    0.6087958882         -1.2517
O144       O    0.4425993399    0.9713003131    0.7244495877         -1.3358
O145       O    0.5573900700    0.0286947894    0.7244505450         -1.3313
O146       O    0.5573971675    0.0287003062    0.6088010606         -1.2439
O147       O    0.5573948869    0.1154337863    0.6666210395         -1.3689
O148       O    0.5573925505    0.9419614050    0.6666221375         -1.3567
Cu149     Cu    0.4321276506    0.9660702566    0.6666200368          1.0456
Cu150     Cu    0.5678690567    0.0339304584    0.6666221828          1.0433
C151       C    0.4999983536    0.8876869462    0.6666211035          0.3063
C152       C    0.4999983536    0.1123137688    0.6666211161          0.2977
C153       C    0.4999984249    0.0000002156    0.5917483918          0.2191
C154       C    0.4999982823    0.0000004994    0.7414938278          0.2819
O155       O    0.4426046930    0.3845683739    0.6666210178         -1.3557
O156       O    0.4426070294    0.5580407552    0.6666200419         -1.3655
O157       O    0.4426093795    0.4713137208    0.6087957869         -1.2517
O158       O    0.4426023308    0.4713017259    0.7244494864         -1.3358
O159       O    0.5573930609    0.5286962022    0.7244503655         -1.3313
O160       O    0.5573999219    0.5287017838    0.6088008810         -1.2439
O161       O    0.5573977596    0.6154352315    0.6666209210         -1.3689
O162       O    0.5573954231    0.4419628502    0.6666218969         -1.3567
Cu163     Cu    0.4321305232    0.4660717018    0.6666199427          1.0456
Cu164     Cu    0.5678719294    0.5339319036    0.6666219962          1.0433
C165       C    0.5000012263    0.3876883914    0.6666208841          0.3063
C166       C    0.5000012263    0.6123152140    0.6666210547          0.2977
C167       C    0.5000011444    0.5000017027    0.5917482514          0.2191
C168       C    0.5000013081    0.5000019027    0.7414936874          0.2819
C399       C    0.4311547660    0.7499998232    0.6666210937          0.3708
C400       C    0.4999990718    0.8188453832    0.6666210913          0.3708
C401       C    0.5688440957    0.8188466400    0.6666210768          0.3708
C402       C    0.5688448139    0.7500023370    0.6666210646          0.3708
C403       C    0.5000005081    0.6811567770    0.6666210669          0.3708
C404       C    0.4311554842    0.6811555201    0.6666210815          0.3708
H405       H    0.3801915664    0.7499988928    0.6666211045          0.3708
H406       H    0.6198045850    0.8698058789    0.6666210750          0.3708
H407       H    0.6198080135    0.7500032674    0.6666210538          0.3708
H408       H    0.3801949949    0.6301962813    0.6666210832          0.3708
C389       C    0.5688440958    0.2500009007    0.6666209269          0.3708
C390       C    0.4999990718    0.1811560589    0.6666210581          0.3708
C391       C    0.4311547660    0.1811562383    0.6666211312          0.3708
C392       C    0.4311554841    0.2500012595    0.6666210733          0.3708
C393       C    0.5000005081    0.3188461013    0.6666209421          0.3708
C394       C    0.5688448139    0.3188459219    0.6666208689          0.3708
H395       H    0.6198067637    0.2500007678    0.6666208728          0.3708
H396       H    0.3801937452    0.1301975311    0.6666212283          0.3708
H397       H    0.3801928162    0.2500013923    0.6666211274          0.3708
H398       H    0.6198058347    0.3698046291    0.6666207719          0.3708
C379       C    0.0688420238    0.8188429416    0.6666216995          0.3708
C380       C    0.9999977127    0.8188447271    0.6666215612          0.3708
C381       C    0.9311526941    0.7500014966    0.6666215071          0.3708
C382       C    0.9311519865    0.6811564806    0.6666215911          0.3708
C383       C    0.9999962976    0.6811546952    0.6666217294          0.3708
C384       C    0.0688413162    0.7499979257    0.6666217836          0.3708
H385       H    0.1198052195    0.8698048136    0.6666217396          0.3708
H386       H    0.8801922009    0.7500006394    0.6666214047          0.3708
H387       H    0.8801887908    0.6301946087    0.6666215510          0.3708
H388       H    0.1198018094    0.7499987828    0.6666218859          0.3708
C369       C    0.9311519865    0.2499984648    0.6666216735          0.3708
C370       C    0.9999962976    0.3188440195    0.6666218399          0.3708
C371       C    0.0688413162    0.3188452658    0.6666218900          0.3708
C372       C    0.0688420238    0.2500009574    0.6666217738          0.3708
C373       C    0.9999977127    0.1811554028    0.6666216074          0.3708
C374       C    0.9311526941    0.1811541565    0.6666215573          0.3708
H375       H    0.8801887908    0.2499975422    0.6666216364          0.3708
H376       H    0.1198018094    0.3698045007    0.6666220132          0.3708
H377       H    0.1198052195    0.2500018800    0.6666218109          0.3708
H378       H    0.8801922009    0.1301949215    0.6666214342          0.3708
C359       C    0.5587870559    0.4983659827    0.8562376266          0.3708
C360       C    0.5000002064    0.5000013521    0.8791861814          0.3708
C361       C    0.4412137242    0.5016369050    0.8562384670          0.3708
C362       C    0.4412140914    0.5016370885    0.8103421980          0.3708
C363       C    0.5000009409    0.5000017191    0.7873936432          0.3708
C364       C    0.5587874231    0.4983661662    0.8103413576          0.3708
H365       H    0.6023043220    0.4971552487    0.8732248957          0.3708
H366       H    0.3976980468    0.5028474513    0.8732241795          0.3708
H367       H    0.3976968254    0.5028478225    0.7933549289          0.3708
H368       H    0.6023031006    0.4971556199    0.7933556451          0.3708
C349       C    0.4753994083    0.9320165694    0.8562366820          0.3708
C350       C    0.4999989575    0.0000010457    0.8791851433          0.3708
C351       C    0.5245982817    0.0679853399    0.8562373355          0.3708
C352       C    0.5245980567    0.0679851578    0.8103410664          0.3708
C353       C    0.4999985074    0.0000006815    0.7873926051          0.3708
C354       C    0.4753991832    0.9320163873    0.8103404129          0.3708
H355       H    0.4571895189    0.8816905334    0.8732240202          0.3708
H356       H    0.5428075592    0.1183093592    0.8732229787          0.3708
H357       H    0.5428079460    0.1183111938    0.7933537282          0.3708
H358       H    0.4571899058    0.8816923681    0.7933547697          0.3708
C339       C    0.7504578626    0.4320739535    0.0064206931          0.3708
C340       C    0.8188456607    0.5000032584    0.9999611499          0.3708
C341       C    0.8183878985    0.5679318505    0.9935016745          0.3708
C342       C    0.7495423382    0.5679311376    0.9935017423          0.3708
C343       C    0.6811545402    0.5000018327    0.9999612855          0.3708
C344       C    0.6816123024    0.4320732407    0.0064207609          0.3708
H345       H    0.7507967256    0.3817891517    0.0112023827          0.3708
H346       H    0.8690082891    0.6182150303    0.9887201391          0.3708
H347       H    0.7492034753    0.6182159395    0.9887200527          0.3708
H348       H    0.6309919118    0.3817900608    0.0112022962          0.3708
C329       C    0.1821773306    0.4332022726    0.0095736377          0.3708
C330       C    0.1811552531    0.5000032584    0.9999611616          0.3708
C331       C    0.2489780229    0.5668035314    0.9903488230          0.3708
C332       C    0.3178228702    0.5668028185    0.9903489603          0.3708
C333       C    0.3188449478    0.5000018327    0.9999614364          0.3708
C334       C    0.2510221780    0.4332015598    0.0095737751          0.3708
H335       H    0.1319708647    0.3837527200    0.0166892650          0.3708
H336       H    0.2482236311    0.6162514977    0.9832333982          0.3708
H337       H    0.3680293362    0.6162523712    0.9832333330          0.3708
H338       H    0.2517765698    0.3837535934    0.0166891999          0.3708
C319       C    0.0474238853    0.5669325872    0.8562369805          0.3708
C320       C    0.9999991831    0.5000027235    0.8791864339          0.3708
C321       C    0.9525733103    0.4330717291    0.8562396182          0.3708
C322       C    0.9525721398    0.4330705983    0.8103433491          0.3708
C323       C    0.9999968421    0.5000004620    0.7873938958          0.3708
C324       C    0.0474227148    0.5669314565    0.8103407115          0.3708
H325       H    0.0825313496    0.6164789078    0.8732235844          0.3708
H326       H    0.9174682133    0.3835283637    0.8732259958          0.3708
H327       H    0.9174646755    0.3835242777    0.7933567453          0.3708
H328       H    0.0825278118    0.6164748219    0.7933543339          0.3708
C309       C    0.7607859250    0.9527310254    0.0288559266          0.3708
C310       C    0.8188446608    0.0000012026    0.9999593218          0.3708
C311       C    0.8080581906    0.0472713751    0.9710627084          0.3708
C312       C    0.7392129844    0.0472713705    0.9710626996          0.3708
C313       C    0.6811542485    0.0000011933    0.9999593044          0.3708
C314       C    0.6919407188    0.9527310208    0.0288559178          0.3708
H315       H    0.7687707146    0.9177388198    0.0502469262          0.3708
H316       H    0.8510327191    0.0822620882    0.9496726298          0.3708
H317       H    0.7312281947    0.0822635761    0.9496717000          0.3708
H318       H    0.6489661902    0.9177403077    0.0502459964          0.3708
C299       C    0.2113243482    0.9914946101    0.0394017961          0.3708
C300       C    0.1811542532    0.0000012026    0.9999593769          0.3708
C301       C    0.2198293597    0.0085077905    0.9605168981          0.3708
C302       C    0.2886745612    0.0085077858    0.9605168385          0.3708
C303       C    0.3188446562    0.0000011933    0.9999592578          0.3708
C304       C    0.2801695497    0.9914946054    0.0394017366          0.3708
H305       H    0.1826947239    0.9851975256    0.0685994752          0.3708
H306       H    0.1974987866    0.0148046092    0.9313205113          0.3708
H307       H    0.3173041855    0.0148048703    0.9313191594          0.3708
H308       H    0.3025001228    0.9851977867    0.0685981233          0.3708
C289       C    0.0615591491    0.0574722769    0.8562364722          0.3708
C290       C    0.9999989917    0.0000010843    0.8791853988          0.3708
C291       C    0.9384386236    0.9425297209    0.8562380563          0.3708
C292       C    0.9384384129    0.9425295501    0.8103417872          0.3708
C293       C    0.9999985703    0.0000007427    0.7873928607          0.3708
C294       C    0.0615589384    0.0574721061    0.8103402032          0.3708
H295       H    0.1071298112    0.1000160135    0.8732234661          0.3708
H296       H    0.8928700657    0.8999879296    0.8732240439          0.3708
H297       H    0.8928677508    0.8999858136    0.7933547934          0.3708
H298       H    0.1071274963    0.1000138975    0.7933542155          0.3708
C279       C    0.4419136170    0.5029615266    0.4770131006          0.3708
C280       C    0.4999994064    0.5000014828    0.4540640804          0.3708
C281       C    0.5580857750    0.4970415122    0.4770113292          0.3708
C282       C    0.5580863544    0.4970415855    0.5229075983          0.3708
C283       C    0.5000005651    0.5000016294    0.5458566185          0.3708
C284       C    0.4419141964    0.5029615999    0.5229093697          0.3708
H285       H    0.3989146169    0.5051526736    0.4600261762          0.3708
H286       H    0.6010825081    0.4948504046    0.4600252722          0.3708
H287       H    0.6010853546    0.4948504385    0.5398945227          0.3708
H288       H    0.3989174633    0.5051527076    0.5398954267          0.3708
C269       C    0.4537864149    0.5210878506    0.1895794034          0.3708
C270       C    0.4999985970    0.5000012639    0.2125281697          0.3708
C271       C    0.5462108905    0.4789146130    0.1895806669          0.3708
C272       C    0.5462110019    0.4789145487    0.1436843979          0.3708
C273       C    0.4999988198    0.5000011354    0.1207356316          0.3708
C274       C    0.4537865263    0.5210877863    0.1436831344          0.3708
H275       H    0.4195773145    0.5366974493    0.2065665159          0.3708
H276       H    0.5804184460    0.4633057292    0.2065665359          0.3708
H277       H    0.5804201023    0.4633049500    0.1266972854          0.3708
H278       H    0.4195789709    0.5366966701    0.1266972654          0.3708
C259       C    0.5017017075    0.0604537413    0.4770139427          0.3708
C260       C    0.4999996442    0.0000000570    0.4540655175          0.3708
C261       C    0.4982971745    0.9395464256    0.4770133614          0.3708
C262       C    0.4982967680    0.9395464785    0.5229096305          0.3708
C263       C    0.4999988313    0.0000001627    0.5458580557          0.3708
C264       C    0.5017013010    0.0604537941    0.5229102118          0.3708
H265       H    0.5029619773    0.1052051307    0.4600265777          0.3708
H266       H    0.4970372594    0.8947969102    0.4600277449          0.3708
H267       H    0.4970364983    0.8947950890    0.5398969955          0.3708
H268       H    0.5029612161    0.1052033095    0.5398958283          0.3708
C249       C    0.4404728583    0.0001882312    0.1895773282          0.3708
C250       C    0.5000000187    0.0000002971    0.2125258200          0.3708
C251       C    0.5595270787    0.9998126472    0.1895780429          0.3708
C252       C    0.5595269784    0.9998129313    0.1436817738          0.3708
C253       C    0.4999998180    0.0000008653    0.1207332819          0.3708
C254       C    0.4404727580    0.0001885153    0.1436810591          0.3708
H255       H    0.3964073723    0.0003271409    0.2065646437          0.3708
H256       H    0.6035907551    0.9996735331    0.2065637088          0.3708
H257       H    0.6035924644    0.9996740216    0.1266944582          0.3708
H258       H    0.3964090815    0.0003276294    0.1266953932          0.3708
C239       C    0.0446607973    0.4769587866    0.4770137310          0.3708
C240       C    0.9999983872    0.4999991575    0.4540645995          0.3708
C241       C    0.9553350176    0.5230393631    0.4770117372          0.3708
C242       C    0.9553340580    0.5230391978    0.5229080062          0.3708
C243       C    0.9999964680    0.4999988269    0.5458571377          0.3708
C244       C    0.0446598377    0.4769586213    0.5229100000          0.3708
H245       H    0.0777232917    0.4599030500    0.4600268889          0.3708
H246       H    0.9222746469    0.5400944930    0.4600255978          0.3708
H247       H    0.9222715636    0.5400949345    0.5398948484          0.3708
H248       H    0.0777202083    0.4599034915    0.5398961394          0.3708
C229       C    0.8188425311    0.2499980758    0.3332999950          0.3708
C230       C    0.8188430611    0.3188430029    0.3332999461          0.3708
C231       C    0.7499986611    0.3188429941    0.3332998867          0.3708
C232       C    0.6811537313    0.2499980582    0.3332998761          0.3708
C233       C    0.6811532013    0.1811531311    0.3332999249          0.3708
C234       C    0.7499976012    0.1811531399    0.3332999844          0.3708
H235       H    0.8698052687    0.2499980823    0.3333000390          0.3708
H236       H    0.7499968747    0.3698017645    0.3332998505          0.3708
H237       H    0.6301909937    0.2499980517    0.3332998321          0.3708
H238       H    0.7499993877    0.1301943695    0.3333000205          0.3708
C219       C    0.1811576498    0.7500019828    0.3332997490          0.3708
C220       C    0.1811571078    0.6811570496    0.3332997601          0.3708
C221       C    0.2500015016    0.6811570463    0.3332997831          0.3708
C222       C    0.3188464375    0.7500019762    0.3332997950          0.3708
C223       C    0.3188469796    0.8188469094    0.3332997839          0.3708
C224       C    0.2500025857    0.8188469127    0.3332997609          0.3708
H225       H    0.1301949167    0.7500019852    0.3332997320          0.3708
H226       H    0.2500032792    0.6301982715    0.3332997913          0.3708
H227       H    0.3698091707    0.7500019738    0.3332998120          0.3708
H228       H    0.2500008082    0.8698056875    0.3332997527          0.3708
C209       C    0.9759402553    0.4321107179    0.1895790461          0.3708
C210       C    0.0000009444    0.5000015869    0.2125280260          0.3708
C211       C    0.0240617446    0.5678932896    0.1895807369          0.3708
C212       C    0.0240618557    0.5678941234    0.1436844678          0.3708
C213       C    0.0000011666    0.5000032545    0.1207354879          0.3708
C214       C    0.9759403664    0.4321115517    0.1436827771          0.3708
H215       H    0.9581290137    0.3818532237    0.2065660004          0.3708
H216       H    0.0418721425    0.6181480181    0.2065667640          0.3708
H217       H    0.0418730973    0.6181516176    0.1266975135          0.3708
H218       H    0.9581299684    0.3818568232    0.1266967499          0.3708
C199       C    0.9912040433    0.9364702549    0.4770146894          0.3708
C200       C    0.9999995972    0.0000000685    0.4540657772          0.3708
C201       C    0.0087947790    0.0635299526    0.4770131341          0.3708
C202       C    0.0087944069    0.0635300230    0.5229094031          0.3708
C203       C    0.9999988531    0.0000002093    0.5458583153          0.3708
C204       C    0.9912036713    0.9364703253    0.5229109584          0.3708
H205       H    0.9846933243    0.8894416394    0.4600276849          0.3708
H206       H    0.0153054951    0.1105565054    0.4600271571          0.3708
H207       H    0.0153051259    0.1105586385    0.5398964076          0.3708
H208       H    0.9846929552    0.8894437724    0.5398969354          0.3708
C189       C    0.7500016869    0.6811589880    0.3332997690          0.3708
C190       C    0.6811560125    0.6811580468    0.3332997648          0.3708
C191       C    0.6811556100    0.7500016994    0.3332998198          0.3708
C192       C    0.7500008819    0.8188462933    0.3332998791          0.3708
C193       C    0.8188465564    0.8188472345    0.3332998834          0.3708
C194       C    0.8188469588    0.7500035819    0.3332998284          0.3708
H195       H    0.7500019848    0.6301968036    0.3332997283          0.3708
H196       H    0.6301962865    0.7500031815    0.3332998167          0.3708
H197       H    0.7500005840    0.8698084777    0.3332999199          0.3708
H198       H    0.8698062824    0.7500020998    0.3332998315          0.3708
C179       C    0.1811526360    0.2499980473    0.3332998305          0.3708
C180       C    0.1811527781    0.1811534562    0.3332999813          0.3708
C181       C    0.2499975141    0.1811541371    0.3333000563          0.3708
C182       C    0.3188421079    0.2499994090    0.3332999803          0.3708
C183       C    0.3188419657    0.3188440001    0.3332998295          0.3708
C184       C    0.2499972298    0.3188433192    0.3332997546          0.3708
H185       H    0.1301896496    0.2499975433    0.3332997750          0.3708
H186       H    0.2499997980    0.1301956155    0.3333001679          0.3708
H187       H    0.3698050942    0.2499999130    0.3333000358          0.3708
H188       H    0.2499949459    0.3698018409    0.3332996429          0.3708
C169       C    0.9446054980    0.0077049338    0.1895774571          0.3708
C170       C    0.9999999521    0.0000002913    0.2125259608          0.3708
C171       C    0.0553943276    0.9922959381    0.1895781955          0.3708
C172       C    0.0553942489    0.9922962275    0.1436819264          0.3708
C173       C    0.9999997948    0.0000008700    0.1207334227          0.3708
C174       C    0.9446054193    0.0077052232    0.1436811880          0.3708
H175       H    0.9035992720    0.0134081563    0.2065647639          0.3708
H176       H    0.0963988587    0.9865927452    0.2065638702          0.3708
H177       H    0.0964004749    0.9865930050    0.1266946196          0.3708
H178       H    0.9036008882    0.0134084161    0.1266955134          0.3708
loop_
_geom_bond_atom_site_label_1
_geom_bond_atom_site_label_2
_geom_bond_distance
_geom_bond_site_symmetry_2
_ccdc_geom_bond_type
O1          Cu9 1.951       .   S
O1          C11 1.250       .   A
O2          Cu9 1.951       .   S
O2          C12 1.250       .   A
O3          Cu9 1.951       .   S
O3          C13 1.250       .   A
O4          Cu9 1.951       .   S
O4          C14 1.250       .   A
O5         Cu10 1.951       .   S
O5          C14 1.250       .   A
O6         Cu10 1.951       .   S
O6          C13 1.251       .   A
O7         Cu10 1.951       .   S
O7          C12 1.250       .   A
O8         Cu10 1.951       .   S
O8          C11 1.250       .   A
Cu9        Cu10 2.630       .   S
C11        C170 1.540       .   S
C12        C200 1.540       .   S
C13        C193 1.540       .   S
C14        C180 1.540       .   S
O15        Cu23 1.951       .   S
O15         C25 1.250       .   A
O16        Cu23 1.951       .   S
O16         C26 1.250       .   A
O17        Cu23 1.951       .   S
O17         C27 1.250       .   A
O18        Cu23 1.951       .   S
O18         C28 1.250       .   A
O19        Cu24 1.951       .   S
O19         C28 1.250       .   A
O20        Cu24 1.951       .   S
O20         C27 1.251       .   A
O21        Cu24 1.951       .   S
O21         C26 1.250       .   A
O22        Cu24 1.951       .   S
O22         C25 1.250       .   A
Cu23       Cu24 2.630       .   S
C25        C220 1.540       .   S
C26        C230 1.540       .   S
C27        C210 1.540       .   S
C28        C240 1.540       .   S
O29        Cu37 1.951       .   S
O29         C39 1.250       .   A
O30        Cu37 1.951       .   S
O30         C40 1.250       .   A
O31        Cu37 1.951       .   S
O31         C41 1.250       .   A
O32        Cu37 1.951       .   S
O32         C42 1.250       .   A
O33        Cu38 1.951       .   S
O33         C42 1.250       .   A
O34        Cu38 1.951       .   S
O34         C41 1.251       .   A
O35        Cu38 1.951       .   S
O35         C40 1.250       .   A
O36        Cu38 1.951       .   S
O36         C39 1.250       .   A
Cu37       Cu38 2.630       .   S
C39        C260 1.540       .   S
C40        C250 1.540       .   S
C41        C233 1.540   1_655   S
C42        C223 1.540   1_545   S
O43        Cu51 1.951       .   S
O43         C53 1.250       .   A
O44        Cu51 1.951       .   S
O44         C54 1.250       .   A
O45        Cu51 1.951       .   S
O45         C55 1.250       .   A
O46        Cu51 1.951       .   S
O46         C56 1.250       .   A
O47        Cu52 1.951       .   S
O47         C56 1.250       .   A
O48        Cu52 1.951       .   S
O48         C55 1.251       .   A
O49        Cu52 1.951       .   S
O49         C54 1.250       .   A
O50        Cu52 1.951       .   S
O50         C53 1.250       .   A
Cu51       Cu52 2.630       .   S
C53        C183 1.540       .   S
C54        C190 1.540   1_665   S
C55        C270 1.540       .   S
C56        C280 1.540       .   S
O57        Cu65 1.951       .   S
O57         C67 1.250       .   A
O58        Cu65 1.951       .   S
O58         C68 1.250       .   A
O59        Cu65 1.951       .   S
O59         C69 1.250       .   A
O60        Cu65 1.951       .   S
O60         C70 1.250       .   A
O61        Cu66 1.951       .   S
O61         C70 1.250       .   A
O62        Cu66 1.951       .   S
O62         C69 1.251       .   A
O63        Cu66 1.951       .   S
O63         C68 1.250       .   A
O64        Cu66 1.951       .   S
O64         C67 1.250       .   A
Cu65       Cu66 2.630       .   S
C67        C173 1.540   1_656   S
C68        C290 1.540       .   S
C69        C300 1.540       .   S
C70        C310 1.540       .   S
O71        Cu79 1.951       .   S
O71         C81 1.250       .   A
O72        Cu79 1.951       .   S
O72         C82 1.250       .   A
O73        Cu79 1.951       .   S
O73         C83 1.250       .   A
O74        Cu79 1.951       .   S
O74         C84 1.250       .   A
O75        Cu80 1.951       .   S
O75         C84 1.250       .   A
O76        Cu80 1.951       .   S
O76         C83 1.251       .   A
O77        Cu80 1.951       .   S
O77         C82 1.250       .   A
O78        Cu80 1.951       .   S
O78         C81 1.250       .   A
Cu79       Cu80 2.630       .   S
C81        C213 1.540   1_556   S
C82        C320 1.540       .   S
C83        C330 1.540       .   S
C84        C340 1.540       .   S
O85        Cu93 1.951       .   S
O85         C95 1.250       .   A
O86        Cu93 1.951       .   S
O86         C96 1.250       .   A
O87        Cu93 1.951       .   S
O87         C97 1.250       .   A
O88        Cu93 1.951       .   S
O88         C98 1.250       .   A
O89        Cu94 1.951       .   S
O89         C98 1.250       .   A
O90        Cu94 1.951       .   S
O90         C97 1.251       .   A
O91        Cu94 1.951       .   S
O91         C96 1.250       .   A
O92        Cu94 1.951       .   S
O92         C95 1.250       .   A
Cu93       Cu94 2.630       .   S
C95        C350 1.540       .   S
C96        C253 1.540   1_556   S
C97        C303 1.540   1_455   S
C98        C313 1.540       .   S
O99       Cu107 1.951       .   S
O99        C109 1.250       .   A
O100      Cu107 1.951       .   S
O100       C110 1.250       .   A
O101      Cu107 1.951       .   S
O101       C111 1.250       .   A
O102      Cu107 1.951       .   S
O102       C112 1.250       .   A
O103      Cu108 1.951       .   S
O103       C112 1.250       .   A
O104      Cu108 1.951       .   S
O104       C111 1.251       .   A
O105      Cu108 1.951       .   S
O105       C110 1.250       .   A
O106      Cu108 1.951       .   S
O106       C109 1.250       .   A
Cu107     Cu108 2.630       .   S
C109       C273 1.540   1_556   S
C110       C360 1.540       .   S
C111       C333 1.540       .   S
C112       C343 1.540   1_655   S
O113      Cu121 1.951       .   S
O113       C123 1.250       .   A
O114      Cu121 1.951       .   S
O114       C124 1.250       .   A
O115      Cu121 1.951       .   S
O115       C125 1.250       .   A
O116      Cu121 1.951       .   S
O116       C126 1.250       .   A
O117      Cu122 1.951       .   S
O117       C126 1.250       .   A
O118      Cu122 1.951       .   S
O118       C125 1.251       .   A
O119      Cu122 1.951       .   S
O119       C124 1.250       .   A
O120      Cu122 1.951       .   S
O120       C123 1.250       .   A
Cu121     Cu122 2.630       .   S
C123       C380 1.540       .   S
C124       C373 1.540       .   S
C125       C203 1.540   1_655   S
C126       C293 1.540       .   S
O127      Cu135 1.951       .   S
O127       C137 1.250       .   A
O128      Cu135 1.951       .   S
O128       C138 1.250       .   A
O129      Cu135 1.951       .   S
O129       C139 1.250       .   A
O130      Cu135 1.951       .   S
O130       C140 1.250       .   A
O131      Cu136 1.951       .   S
O131       C140 1.250       .   A
O132      Cu136 1.951       .   S
O132       C139 1.251       .   A
O133      Cu136 1.951       .   S
O133       C138 1.250       .   A
O134      Cu136 1.951       .   S
O134       C137 1.250       .   A
Cu135     Cu136 2.630       .   S
C137       C370 1.540       .   S
C138       C383 1.540   1_565   S
C139       C243 1.540   1_655   S
C140       C323 1.540   1_655   S
O141      Cu149 1.951       .   S
O141       C151 1.250       .   A
O142      Cu149 1.951       .   S
O142       C152 1.250       .   A
O143      Cu149 1.951       .   S
O143       C153 1.250       .   A
O144      Cu149 1.951       .   S
O144       C154 1.250       .   A
O145      Cu150 1.951       .   S
O145       C154 1.250       .   A
O146      Cu150 1.951       .   S
O146       C153 1.251       .   A
O147      Cu150 1.951       .   S
O147       C152 1.250       .   A
O148      Cu150 1.951       .   S
O148       C151 1.250       .   A
Cu149     Cu150 2.630       .   S
C151       C400 1.540       .   S
C152       C390 1.540       .   S
C153       C263 1.540       .   S
C154       C353 1.540       .   S
O155      Cu163 1.951       .   S
O155       C165 1.250       .   A
O156      Cu163 1.951       .   S
O156       C166 1.250       .   A
O157      Cu163 1.951       .   S
O157       C167 1.250       .   A
O158      Cu163 1.951       .   S
O158       C168 1.250       .   A
O159      Cu164 1.951       .   S
O159       C168 1.250       .   A
O160      Cu164 1.951       .   S
O160       C167 1.251       .   A
O161      Cu164 1.951       .   S
O161       C166 1.250       .   A
O162      Cu164 1.951       .   S
O162       C165 1.250       .   A
Cu163     Cu164 2.630       .   S
C165       C393 1.540       .   S
C166       C403 1.540   1_565   S
C167       C283 1.540       .   S
C168       C363 1.540       .   S
C399       C400 1.540       .   A
C399       C404 1.540       .   A
C399       H405 1.140       .   S
C400       C401 1.540       .   A
C401       C402 1.540       .   A
C401       H406 1.140       .   S
C402       C403 1.540       .   A
C402       H407 1.140       .   S
C403       C404 1.540       .   A
C404       H408 1.140       .   S
C389       C390 1.540       .   A
C389       C394 1.540       .   A
C389       H395 1.140       .   S
C390       C391 1.540       .   A
C391       C392 1.540       .   A
C391       H396 1.140       .   S
C392       C393 1.540       .   A
C392       H397 1.140       .   S
C393       C394 1.540       .   A
C394       H398 1.140       .   S
C379       C380 1.540       .   A
C379       C384 1.540       .   A
C379       H385 1.140       .   S
C380       C381 1.540       .   A
C381       C382 1.540       .   A
C381       H386 1.140       .   S
C382       C383 1.540       .   A
C382       H387 1.140       .   S
C383       C384 1.540       .   A
C384       H388 1.140       .   S
C369       C370 1.540       .   A
C369       C374 1.540       .   A
C369       H375 1.140       .   S
C370       C371 1.540       .   A
C371       C372 1.540       .   A
C371       H376 1.140       .   S
C372       C373 1.540       .   A
C372       H377 1.140       .   S
C373       C374 1.540       .   A
C374       H378 1.140       .   S
C359       C360 1.540       .   A
C359       C364 1.540       .   A
C359       H365 1.140       .   S
C360       C361 1.540       .   A
C361       C362 1.540       .   A
C361       H366 1.140       .   S
C362       C363 1.540       .   A
C362       H367 1.140       .   S
C363       C364 1.540       .   A
C364       H368 1.140       .   S
C349       C350 1.540       .   A
C349       C354 1.540       .   A
C349       H355 1.140       .   S
C350       C351 1.540       .   A
C351       C352 1.540       .   A
C351       H356 1.140       .   S
C352       C353 1.540       .   A
C352       H357 1.140       .   S
C353       C354 1.540       .   A
C354       H358 1.140       .   S
C339       C340 1.540       .   A
C339       C344 1.540       .   A
C339       H345 1.140       .   S
C340       C341 1.540       .   A
C341       C342 1.540       .   A
C341       H346 1.140       .   S
C342       C343 1.540       .   A
C342       H347 1.140       .   S
C343       C344 1.540       .   A
C344       H348 1.140       .   S
C329       C330 1.540       .   A
C329       C334 1.540       .   A
C329       H335 1.140       .   S
C330       C331 1.540       .   A
C331       C332 1.540       .   A
C331       H336 1.140       .   S
C332       C333 1.540       .   A
C332       H337 1.140       .   S
C333       C334 1.540       .   A
C334       H338 1.140       .   S
C319       C320 1.540       .   A
C319       C324 1.540       .   A
C319       H325 1.140       .   S
C320       C321 1.540       .   A
C321       C322 1.540       .   A
C321       H326 1.140       .   S
C322       C323 1.540       .   A
C322       H327 1.140       .   S
C323       C324 1.540       .   A
C324       H328 1.140       .   S
C309       C310 1.540       .   A
C309       C314 1.540       .   A
C309       H315 1.140       .   S
C310       C311 1.540       .   A
C311       C312 1.540       .   A
C311       H316 1.140       .   S
C312       C313 1.540       .   A
C312       H317 1.140       .   S
C313       C314 1.540       .   A
C314       H318 1.140       .   S
C299       C300 1.540       .   A
C299       C304 1.540       .   A
C299       H305 1.140       .   S
C300       C301 1.540       .   A
C301       C302 1.540       .   A
C301       H306 1.140       .   S
C302       C303 1.540       .   A
C302       H307 1.140       .   S
C303       C304 1.540       .   A
C304       H308 1.140       .   S
C289       C290 1.540       .   A
C289       C294 1.540       .   A
C289       H295 1.140       .   S
C290       C291 1.540       .   A
C291       C292 1.540       .   A
C291       H296 1.140       .   S
C292       C293 1.540       .   A
C292       H297 1.140       .   S
C293       C294 1.540       .   A
C294       H298 1.140       .   S
C279       C280 1.540       .   A
C279       C284 1.540       .   A
C279       H285 1.140       .   S
C280       C281 1.540       .   A
C281       C282 1.540       .   A
C281       H286 1.140       .   S
C282       C283 1.540       .   A
C282       H287 1.140       .   S
C283       C284 1.540       .   A
C284       H288 1.140       .   S
C269       C270 1.540       .   A
C269       C274 1.540       .   A
C269       H275 1.140       .   S
C270       C271 1.540       .   A
C271       C272 1.540       .   A
C271       H276 1.140       .   S
C272       C273 1.540       .   A
C272       H277 1.140       .   S
C273       C274 1.540       .   A
C274       H278 1.140       .   S
C259       C260 1.540       .   A
C259       C264 1.540       .   A
C259       H265 1.140       .   S
C260       C261 1.540       .   A
C261       C262 1.540       .   A
C261       H266 1.140       .   S
C262       C263 1.540       .   A
C262       H267 1.140       .   S
C263       C264 1.540       .   A
C264       H268 1.140       .   S
C249       C250 1.540       .   A
C249       C254 1.540       .   A
C249       H255 1.140       .   S
C250       C251 1.540       .   A
C251       C252 1.540       .   A
C251       H256 1.140       .   S
C252       C253 1.540       .   A
C252       H257 1.140       .   S
C253       C254 1.540       .   A
C254       H258 1.140       .   S
C239       C240 1.540       .   A
C239       C244 1.540       .   A
C239       H245 1.140       .   S
C240       C241 1.540       .   A
C241       C242 1.540       .   A
C241       H246 1.140       .   S
C242       C243 1.540       .   A
C242       H247 1.140       .   S
C243       C244 1.540       .   A
C244       H248 1.140       .   S
C229       C230 1.540       .   A
C229       C234 1.540       .   A
C229       H235 1.140       .   S
C230       C231 1.540       .   A
C231       C232 1.540       .   A
C231       H236 1.140       .   S
C232       C233 1.540       .   A
C232       H237 1.140       .   S
C233       C234 1.540       .   A
C234       H238 1.140       .   S
C219       C220 1.540       .   A
C219       C224 1.540       .   A
C219       H225 1.140       .   S
C220       C221 1.540       .   A
C221       C222 1.540       .   A
C221       H226 1.140       .   S
C222       C223 1.540       .   A
C222       H227 1.140       .   S
C223       C224 1.540       .   A
C224       H228 1.140       .   S
C209       C210 1.540       .   A
C209       C214 1.540       .   A
C209       H215 1.140       .   S
C210       C211 1.540       .   A
C211       C212 1.540       .   A
C211       H216 1.140       .   S
C212       C213 1.540       .   A
C212       H217 1.140       .   S
C213       C214 1.540       .   A
C214       H218 1.140       .   S
C199       C200 1.540       .   A
C199       C204 1.540       .   A
C199       H205 1.140       .   S
C200       C201 1.540       .   A
C201       C202 1.540       .   A
C201       H206 1.140       .   S
C202       C203 1.540       .   A
C202       H207 1.140       .   S
C203       C204 1.540       .   A
C204       H208 1.140       .   S
C189       C190 1.540       .   A
C189       C194 1.540       .   A
C189       H195 1.140       .   S
C190       C191 1.540       .   A
C191       C192 1.540       .   A
C191       H196 1.140       .   S
C192       C193 1.540       .   A
C192       H197 1.140       .   S
C193       C194 1.540       .   A
C194       H198 1.140       .   S
C179       C180 1.540       .   A
C179       C184 1.540       .   A
C179       H185 1.140       .   S
C180       C181 1.540       .   A
C181       C182 1.540       .   A
C181       H186 1.140       .   S
C182       C183 1.540       .   A
C182       H187 1.140       .   S
C183       C184 1.540       .   A
C184       H188 1.140       .   S
C169       C170 1.540       .   A
C169       C174 1.540       .   A
C169       H175 1.140       .   S
C170       C171 1.540       .   A
C171       C172 1.540       .   A
C171       H176 1.140       .   S
C172       C173 1.540       .   A
C172       H177 1.140       .   S
C173       C174 1.540       .   A
C174       H178 1.140       .   S
