data_rhr_v1-4c_Cu_1_Ch_1-1B_4H_Ch
_audit_creation_date              2024-08-05
_audit_creation_method            'tobacco_3.0'
_symmetry_space_group_name_H-M    'P1'
_symmetry_Int_Tables_number       1
_symmetry_cell_setting            triclinic
loop_
_symmetry_equiv_pos_as_xyz
  x,y,z
_cell_length_a                    37.843637878199104
_cell_length_b                    37.84266004700292
_cell_length_c                    37.84217553042808
_cell_angle_alpha                 89.99975350084479
_cell_angle_beta                  89.99982582779077
_cell_angle_gamma                 90.00051635389754
loop_
_atom_site_label
_atom_site_type_symbol
_atom_site_fract_x
_atom_site_fract_y
_atom_site_fract_z
_atom_site_charge
O1         O    0.8381601264    0.4637461398    0.7868877785         -1.3557
O2         O    0.7868904460    0.5362544726    0.8381581269         -1.3655
O3         O    0.8381606682    0.5362582740    0.7868905632         -1.2517
O4         O    0.7868861627    0.4637423398    0.8381590748         -1.3358
O5         O    0.8284355903    0.4637417274    0.8797131694         -1.3313
O6         O    0.8797100270    0.5362523775    0.8284445908         -1.2439
O7         O    0.8284398736    0.5362538602    0.8797122215         -1.3689
O8         O    0.8797095540    0.4637455274    0.8284418731         -1.3567
Cu9       Cu    0.8087324816    0.5000026550    0.8087320658          1.0456
Cu10      Cu    0.8578675184    0.4999973450    0.8578679342          1.0433
C11        C    0.8664952647    0.4530551492    0.8001053979          0.3063
C12        C    0.8001047353    0.5469448508    0.8664946021          0.2977
C13        C    0.8664944125    0.5469435667    0.8001061051          0.2191
C14        C    0.8001055875    0.4530564333    0.8664938949          0.2819
O15        O    0.6873655023    0.7050973804    0.9972868215         -1.3557
O16        O    0.7386363245    0.6538292729    0.0697967061         -1.3655
O17        O    0.6873687314    0.7050981916    0.0697998841         -1.2517
O18        O    0.7386368280    0.6538247203    0.9972836449         -1.3358
O19        O    0.7801876875    0.6953773518    0.9972821227         -1.3313
O20        O    0.7289195239    0.7466507541    0.0697930778         -1.2439
O21        O    0.7801871840    0.6953819043    0.0697951839         -1.3689
O22        O    0.7289163618    0.7466500119    0.9972852994         -1.3567
Cu23      Cu    0.7092103217    0.6756702297    0.0335441957          1.0456
Cu24      Cu    0.7583423646    0.7248090550    0.0335378098          1.0433
C25        C    0.7005814343    0.7334338888    0.9865951473          0.3063
C26        C    0.7669712520    0.6670453959    0.0804868582          0.2977
C27        C    0.7005827170    0.7334333851    0.0804847668          0.2191
C28        C    0.7669699693    0.6670458996    0.9865972386          0.2819
O29        O    0.5697930717    0.7948967275    0.8797055678         -1.3557
O30        O    0.4972867108    0.8461667477    0.8284339390         -1.3655
O31        O    0.4972828111    0.7948961165    0.8797024832         -1.2517
O32        O    0.5697969701    0.8461711002    0.8284332909         -1.3358
O33        O    0.5697977414    0.8046198568    0.7868799910         -1.3313
O34        O    0.4972888665    0.7533449419    0.8381492503         -1.2439
O35        O    0.4972874822    0.8046155043    0.7868806391         -1.3689
O36        O    0.5697938430    0.7533454840    0.8381522679         -1.3567
Cu37      Cu    0.5335375280    0.8243247079    0.8578605678          1.0456
Cu38      Cu    0.5335430259    0.7751875238    0.8087256391          1.0433
C39        C    0.5804838509    0.7665606310    0.8664885346          0.3063
C40        C    0.4865967029    0.8329516007    0.8000976724          0.2977
C41        C    0.4865978595    0.7665613938    0.8664874390          0.2191
C42        C    0.5804826944    0.8329508379    0.8000987679          0.2819
O43        O    0.6873683499    0.0362550043    0.7386395658         -1.3557
O44        O    0.7386400359    0.9637469779    0.6873707898         -1.3655
O45        O    0.6873713300    0.9637428700    0.7386398699         -1.2517
O46        O    0.7386407885    0.0362591107    0.6873667443         -1.3358
O47        O    0.7801907461    0.0362600902    0.7289203090         -1.3313
O48        O    0.7289212205    0.9637491336    0.7801933657         -1.2439
O49        O    0.7801899934    0.9637479573    0.7289243545         -1.3689
O50        O    0.7289183075    0.0362559837    0.7801931305         -1.3567
Cu51      Cu    0.7092136835    0.9999986088    0.7092119957          1.0456
Cu52      Cu    0.7583446598    0.0000043528    0.7583519246          1.0433
C53        C    0.7005837035    0.0469461331    0.7669766394          0.3063
C54        C    0.7669746398    0.9530568284    0.7005872809          0.2977
C55        C    0.7005846638    0.9530577157    0.7669754791          0.2191
C56        C    0.7669736795    0.0469452458    0.7005884412          0.2819
O57        O    0.0697905172    0.6953809714    0.7801958335         -1.3557
O58        O    0.9972841961    0.7466513680    0.7289245248         -1.3655
O59        O    0.9972802566    0.6953807291    0.7801930614         -1.2517
O60        O    0.0697944554    0.7466553517    0.7289235641         -1.3358
O61        O    0.0697948363    0.7051041144    0.6873702580         -1.3313
O62        O    0.9972859216    0.6538295607    0.7386398223         -1.2439
O63        O    0.9972845770    0.7051001307    0.6873712187         -1.3689
O64        O    0.0697908981    0.6538297341    0.7386425274         -1.3567
Cu65      Cu    0.0335350291    0.7248091394    0.7583509941          1.0456
Cu66      Cu    0.0335400652    0.6756719626    0.7092160581          1.0433
C67        C    0.0804810954    0.6670448225    0.7669787499          0.3063
C68        C    0.9865939989    0.7334362795    0.7005883023          0.2977
C69        C    0.9865951039    0.6670460628    0.7669780591          0.2191
C70        C    0.0804799903    0.7334350392    0.7005889931          0.2819
O71        O    0.8284432438    0.8461739915    0.5697959536         -1.3557
O72        O    0.8797122983    0.7949036602    0.4972865209         -1.3655
O73        O    0.8284431371    0.8461710106    0.4972828909         -1.2517
O74        O    0.8797161464    0.7949029084    0.5697995821         -1.3358
O75        O    0.8381658588    0.7533497050    0.5698005583         -1.3313
O76        O    0.7868929184    0.8046178743    0.4972891513         -1.2439
O77        O    0.8381620107    0.7533504568    0.4972874970         -1.3689
O78        O    0.7868929562    0.8046207881    0.5697969297         -1.3567
Cu79      Cu    0.8578706541    0.8243296314    0.5335388552          1.0456
Cu80      Cu    0.8087346004    0.7751948168    0.5335445954          1.0433
C81        C    0.8001077677    0.8329568151    0.5804872881          0.3063
C82        C    0.8664974868    0.7665676331    0.4865961624          0.2977
C83        C    0.8001091835    0.8329558540    0.4865976686          0.2191
C84        C    0.8664960710    0.7665685942    0.5804857820          0.2819
O85        O    0.4972879151    0.2051016483    0.8797085798         -1.3557
O86        O    0.5697945568    0.1538317086    0.8284372679         -1.3655
O87        O    0.5697981758    0.2051021704    0.8797055404         -1.2517
O88        O    0.4972842976    0.1538274449    0.8284365747         -1.3358
O89        O    0.4972838556    0.1953788257    0.7868830545         -1.3313
O90        O    0.5697924498    0.2466534823    0.8381520873         -1.2439
O91        O    0.5697941149    0.1953830893    0.7868837478         -1.3689
O92        O    0.4972874732    0.2466530291    0.8381550597         -1.3567
Cu93      Cu    0.5335435692    0.1756736956    0.8578637584          1.0456
Cu94      Cu    0.5335384609    0.2248110420    0.8087285692          1.0433
C95        C    0.4865972592    0.2334378015    0.8664913897          0.3063
C96        C    0.5804847708    0.1670469362    0.8001009379          0.2977
C97        C    0.5804832507    0.2334369237    0.8664903527          0.2191
C98        C    0.4865987794    0.1670478140    0.8001019749          0.2819
O99        O    0.7289165519    0.2533490875    0.9972858456         -1.3557
O100       O    0.7801858668    0.3046197420    0.0697952074         -1.3655
O101       O    0.7289160252    0.2533521479    0.0697989082         -1.2517
O102       O    0.7801901350    0.3046204143    0.9972821461         -1.3358
O103       O    0.7386403989    0.3461734202    0.9972811363         -1.3313
O104       O    0.6873663580    0.2949050867    0.0697926141         -1.2439
O105       O    0.7386361307    0.3461727479    0.0697941975         -1.3689
O106       O    0.6873668158    0.2949020934    0.9972848357         -1.3567
Cu107     Cu    0.7583440421    0.2751936272    0.0335429116          1.0456
Cu108     Cu    0.7092086405    0.3243282082    0.0335371315          1.0433
C109       C    0.7005813132    0.2665661175    0.9865945046          0.3063
C110       C    0.7669713694    0.3329557179    0.0804855385          0.2977
C111       C    0.7005821850    0.2665671815    0.0804841241          0.2191
C112       C    0.7669704976    0.3329546539    0.9865959190          0.2819
O113       O    0.8284412887    0.5362548739    0.1873695429         -1.3557
O114       O    0.8797111214    0.4637463465    0.2386397761         -1.3655
O115       O    0.8284409619    0.4637427396    0.1873724615         -1.2517
O116       O    0.8797151898    0.5362584794    0.2386405901         -1.3358
O117       O    0.8381657114    0.5362586878    0.2801948865         -1.3313
O118       O    0.7868915523    0.4637482321    0.2289266909         -1.2439
O119       O    0.8381616430    0.4637465549    0.2801940725         -1.3689
O120       O    0.7868918103    0.5362550822    0.2289238393         -1.3567
Cu121     Cu    0.8578690143    0.4999982983    0.2092137541          1.0456
Cu122     Cu    0.8087339174    0.5000031305    0.2583498613          1.0433
C123       C    0.8001061026    0.5469456911    0.2005872802          0.3063
C124       C    0.8664968292    0.4530557377    0.2669763352          0.2977
C125       C    0.8001072331    0.4530572736    0.2005881607          0.2191
C126       C    0.8664956986    0.5469441551    0.2669754547          0.2819
O127       O    0.9972864321    0.7051028442    0.3797102594         -1.3557
O128       O    0.0697928751    0.6538326650    0.3284389060         -1.3655
O129       O    0.0697966927    0.7051030968    0.3797072086         -1.2517
O130       O    0.9972826159    0.6538286710    0.3284382242         -1.3358
O131       O    0.9972823219    0.6953800761    0.2868847284         -1.3313
O132       O    0.0697911148    0.7466544330    0.3381537798         -1.2439
O133       O    0.0697925812    0.6953840701    0.2868854103         -1.3689
O134       O    0.9972861382    0.7466542494    0.3381567636         -1.3567
Cu135     Cu    0.0335419733    0.6756747695    0.3578654150          1.0456
Cu136     Cu    0.0335370400    0.7248121448    0.3087302547          1.0433
C137       C    0.9865958794    0.7334390449    0.3664930875          0.3063
C138       C    0.0804831338    0.6670478694    0.3001025821          0.2977
C139       C    0.0804818709    0.7334378180    0.3664920359          0.2191
C140       C    0.9865971424    0.6670490964    0.3001036338          0.2819
O141       O    0.1873648474    0.7949016771    0.5697939852         -1.3557
O142       O    0.2386364757    0.8461708669    0.4972844709         -1.3655
O143       O    0.1873682216    0.7949016852    0.4972809225         -1.2517
O144       O    0.2386368341    0.8461746002    0.5697975321         -1.3358
O145       O    0.2801871579    0.8046221819    0.5697984153         -1.3313
O146       O    0.2289184783    0.7533493358    0.4972870900         -1.2439
O147       O    0.2801867994    0.8046184486    0.4972853540         -1.3689
O148       O    0.2289151711    0.7533492588    0.5697948684         -1.3567
Cu149     Cu    0.2092101188    0.8243293495    0.5335368545          1.0456
Cu150     Cu    0.2583415280    0.7751907762    0.5335424848          1.0433
C151       C    0.2005803926    0.7665651157    0.5804852853          0.3063
C152       C    0.2669712542    0.8329550100    0.4865940539          0.2977
C153       C    0.2005818633    0.7665666802    0.4865956658          0.2191
C154       C    0.2669697835    0.8329534454    0.5804836734          0.2819
O155       O    0.3381612038    0.0362528755    0.7801943260         -1.3557
O156       O    0.2868908812    0.9637444269    0.7289237882         -1.3655
O157       O    0.3381613318    0.9637407413    0.7801908117         -1.2517
O158       O    0.2868870117    0.0362565597    0.7289235699         -1.3358
O159       O    0.3284362541    0.0362581019    0.6873690376         -1.3313
O160       O    0.3797105055    0.9637475677    0.7386363465         -1.2439
O161       O    0.3284401237    0.9637459691    0.6873692559         -1.3689
O162       O    0.3797104462    0.0362544177    0.7386397936         -1.3567
Cu163     Cu    0.3087332548    0.9999962175    0.7583499840          1.0456
Cu164     Cu    0.3578680727    0.0000026271    0.7092135979          1.0433
C165       C    0.3664963442    0.0469443480    0.7669765156          0.3063
C166       C    0.3001049833    0.9530544966    0.7005870663          0.2977
C167       C    0.3664949563    0.9530559306    0.7669748639          0.2191
C168       C    0.3001063712    0.0469429140    0.7005887180          0.2819
O169       O    0.7801903754    0.9637466850    0.3381569529         -1.3557
O170       O    0.7289190521    0.0362550833    0.2868880280         -1.3655
O171       O    0.7801872257    0.0362588192    0.3381573288         -1.2517
O172       O    0.7289184691    0.9637429505    0.2868839107         -1.3358
O173       O    0.6873680802    0.9637414752    0.3284372966         -1.3313
O174       O    0.7386369038    0.0362520597    0.3797106458         -1.2439
O175       O    0.6873686631    0.0362536080    0.3284414139         -1.3689
O176       O    0.7386399864    0.9637452097    0.3797103387         -1.3567
Cu177     Cu    0.7583452625    0.0000033117    0.3087293247          1.0456
Cu178     Cu    0.7092137760    0.9999969813    0.3578690421          1.0433
C179       C    0.7669747526    0.9530552533    0.3664939590          0.3063
C180       C    0.7005842859    0.0469450397    0.3001044078          0.2977
C181       C    0.7669735726    0.0469436708    0.3664928917          0.2191
C182       C    0.7005854659    0.9530566222    0.3001054751          0.2819
O183       O    0.4972885197    0.7949003110    0.1873693227         -1.3557
O184       O    0.5697954428    0.8461703802    0.2386409732         -1.3655
O185       O    0.5697987803    0.7948999393    0.1873726798         -1.2517
O186       O    0.4972851837    0.8461744934    0.2386413488         -1.3358
O187       O    0.4972836444    0.8046230957    0.2801948520         -1.3313
O188       O    0.5697919570    0.7533486104    0.2289261159         -1.2439
O189       O    0.5697939036    0.8046189824    0.2801944763         -1.3689
O190       O    0.4972869805    0.7533489133    0.2289228259         -1.3567
Cu191     Cu    0.5335444146    0.8243283300    0.2092143150          1.0456
Cu192     Cu    0.5335380087    0.7751909635    0.2583494840          1.0433
C193       C    0.4865972736    0.7665641303    0.2005864544          0.3063
C194       C    0.5804851497    0.8329551632    0.2669773446          0.2977
C195       C    0.5804832651    0.7665652029    0.2005879027          0.2191
C196       C    0.4865991582    0.8329540906    0.2669758964          0.2819
O197       O    0.2289168788    0.5362534178    0.7868877050         -1.3557
O198       O    0.2801871004    0.4637452442    0.8381580495         -1.3655
O199       O    0.2289167895    0.4637412836    0.7868908863         -1.2517
O200       O    0.2801909313    0.5362573770    0.8381586008         -1.3358
O201       O    0.2386415756    0.5362575998    0.8797130199         -1.3313
O202       O    0.1873675027    0.4637467905    0.8284452383         -1.2439
O203       O    0.2386377447    0.4637454669    0.8797124686         -1.3689
O204       O    0.1873675231    0.5362536406    0.8284421241         -1.3567
Cu205     Cu    0.2583447877    0.4999970177    0.8087319607          1.0456
Cu206     Cu    0.2092098359    0.5000018670    0.8578682129          1.0433
C207       C    0.2005816966    0.5469441900    0.8001054873          0.3063
C208       C    0.2669729269    0.4530546947    0.8664946863          0.2977
C209       C    0.2005831348    0.4530557726    0.8001067079          0.2191
C210       C    0.2669714888    0.5469431121    0.8664934657          0.2819
O211       O    0.3797134366    0.7050985267    0.0697939601         -1.3557
O212       O    0.3284419149    0.6538293184    0.9972851362         -1.3655
O213       O    0.3797101633    0.7050985058    0.9972808974         -1.2517
O214       O    0.3284414555    0.6538255979    0.0697981975         -1.3358
O215       O    0.2868911271    0.6953780115    0.0697989106         -1.3313
O216       O    0.3381599019    0.7466508506    0.9972868947         -1.2439
O217       O    0.2868915865    0.6953817320    0.9972858493         -1.3689
O218       O    0.3381631082    0.7466509404    0.0697946731         -1.3567
Cu219     Cu    0.3578682189    0.6756708455    0.0335371901          1.0456
Cu220     Cu    0.3087368041    0.7248094133    0.0335426192          1.0433
C221       C    0.3664978733    0.7334350885    0.0804850733          0.3063
C222       C    0.3001071498    0.6670451702    0.9865947361          0.2977
C223       C    0.3664965333    0.7334335074    0.9865954538          0.2191
C224       C    0.3001084898    0.6670467513    0.0804843556          0.2819
O225       O    0.1873673395    0.5362532824    0.2386398702         -1.3557
O226       O    0.2386387664    0.4637451156    0.1873710337         -1.3655
O227       O    0.1873702183    0.4637411482    0.2386402717         -1.2517
O228       O    0.2386396203    0.5362572485    0.1873668908         -1.3358
O229       O    0.2801897057    0.5362582257    0.2289203275         -1.3313
O230       O    0.2289202368    0.4637474096    0.2801936396         -1.2439
O231       O    0.2801888519    0.4637460929    0.2289244705         -1.3689
O232       O    0.2289174250    0.5362542597    0.2801933069         -1.3567
Cu233     Cu    0.2092125319    0.4999968169    0.2092122815          1.0456
Cu234     Cu    0.2583436595    0.5000025584    0.2583520591          1.0433
C235       C    0.2005827953    0.5469444309    0.2669768887          0.3063
C236       C    0.2669733961    0.4530549444    0.2005874519          0.2977
C237       C    0.2005836245    0.4530560135    0.2669758545          0.2191
C238       C    0.2669725669    0.5469433618    0.2005884861          0.2819
O239       O    0.3797136654    0.2949034782    0.9972852409         -1.3557
O240       O    0.3284427283    0.3461717711    0.0697947837         -1.3655
O241       O    0.3797106330    0.2949031641    0.0697983036         -1.2517
O242       O    0.3284420280    0.3461758266    0.9972817225         -1.3358
O243       O    0.2868914211    0.3046229425    0.9972812080         -1.3313
O244       O    0.3381600931    0.2533503489    0.0697925049         -1.2439
O245       O    0.2868921214    0.3046188870    0.0697942693         -1.3689
O246       O    0.3381630585    0.2533505941    0.9972847265         -1.3567
Cu247     Cu    0.3578687655    0.3243307446    0.0335423522          1.0456
Cu248     Cu    0.3087370213    0.2751916206    0.0335371580          1.0433
C249       C    0.3664978767    0.2665668162    0.9865941210          0.3063
C250       C    0.3001079101    0.3329555490    0.0804853892          0.2977
C251       C    0.3664968486    0.2665679634    0.0804837405          0.2191
C252       C    0.3001089381    0.3329544018    0.9865957697          0.2819
O253       O    0.4972871421    0.2466554199    0.2289244084         -1.3557
O254       O    0.5697935714    0.1953836621    0.2801942028         -1.3655
O255       O    0.5697974027    0.2466525409    0.2289239061         -1.2517
O256       O    0.4972833122    0.1953828084    0.2801984466         -1.3358
O257       O    0.4972822247    0.1538308436    0.2386458680         -1.3313
O258       O    0.5697910312    0.2051006432    0.1873713963         -1.2439
O259       O    0.5697924839    0.1538316973    0.2386416242         -1.3689
O260       O    0.4972860546    0.2051034551    0.1873718297         -1.3567
Cu261     Cu    0.5335427489    0.2248102335    0.2583523978          1.0456
Cu262     Cu    0.5335368772    0.1756768837    0.2092136348          1.0433
C263       C    0.4865961947    0.2334390732    0.2005876777          0.3063
C264       C    0.5804834314    0.1670480440    0.2669783549          0.2977
C265       C    0.5804821862    0.2334382439    0.2005885813          0.2191
C266       C    0.4865974399    0.1670488733    0.2669774513          0.2819
O267       O    0.9972861007    0.3046154213    0.7801963022         -1.3557
O268       O    0.0697927307    0.2533454349    0.7289250204         -1.3655
O269       O    0.0697963614    0.3046157173    0.7801934723         -1.2517
O270       O    0.9972824714    0.2533413973    0.7289241176         -1.3358
O271       O    0.9972822792    0.2948929235    0.6873707429         -1.3313
O272       O    0.0697908851    0.3461671746    0.7386401646         -1.2439
O273       O    0.0697925384    0.2948969610    0.6873716457         -1.3689
O274       O    0.9972859085    0.3461669475    0.7386429275         -1.3567
Cu275     Cu    0.0335417261    0.2751874319    0.7583514825          1.0456
Cu276     Cu    0.0335369131    0.3243249504    0.7092164653          1.0433
C277       C    0.9865955713    0.3329516541    0.7669791803          0.3063
C278       C    0.0804830678    0.2665607282    0.7005887676          0.2977
C279       C    0.0804815628    0.3329504834    0.7669784147          0.2191
C280       C    0.9865970763    0.2665618989    0.7005895332          0.2819
O281       O    0.8284424345    0.1538286772    0.4972857313         -1.3557
O282       O    0.8797119550    0.2050992478    0.5697950071         -1.3655
O283       O    0.8284420345    0.1538317326    0.5697987940         -1.2517
O284       O    0.8797160966    0.2050999250    0.4972819458         -1.3358
O285       O    0.8381664244    0.2466529949    0.4972810114         -1.3313
O286       O    0.7868924312    0.1953847355    0.5697925753         -1.2439
O287       O    0.8381622829    0.2466523177    0.5697940727         -1.3689
O288       O    0.7868927624    0.1953817471    0.4972847969         -1.3567
Cu289     Cu    0.8578700217    0.1756731691    0.5335427474          1.0456
Cu290     Cu    0.8087346957    0.2248078258    0.5335370566          1.0433
C291       C    0.8001071975    0.1670457515    0.4865944408          0.3063
C292       C    0.8664975199    0.2334352434    0.5804853633          0.2977
C293       C    0.8001082333    0.1670468092    0.5804840603          0.2191
C294       C    0.8664964841    0.2334341857    0.4865957437          0.2819
O295       O    0.2801882711    0.1953812876    0.4972867834         -1.3557
O296       O    0.2289171762    0.2466494488    0.5697963078         -1.3655
O297       O    0.2801850155    0.1953807764    0.5697998461         -1.2517
O298       O    0.2289166991    0.2466537014    0.4972832465         -1.3358
O299       O    0.1873660392    0.2051008703    0.4972824913         -1.3313
O300       O    0.2386344227    0.1538280142    0.5697938066         -1.2439
O301       O    0.1873665163    0.2050966177    0.5697955525         -1.3689
O302       O    0.2386376112    0.1538284565    0.4972860282         -1.3567
Cu303     Cu    0.2583432971    0.2248084833    0.5335439075          1.0456
Cu304     Cu    0.2092114903    0.1756694219    0.5335384285          1.0433
C305       C    0.2669724791    0.1670446715    0.4865955458          0.3063
C306       C    0.2005823083    0.2334332338    0.5804867902          0.2977
C307       C    0.2669711622    0.1670455636    0.5804851653          0.2191
C308       C    0.2005836252    0.2334323417    0.4865971706          0.2819
O309       O    0.2868912291    0.0362541665    0.3381558669         -1.3557
O310       O    0.3381627234    0.9637461902    0.2868868284         -1.3655
O311       O    0.2868941957    0.9637420323    0.3381560867         -1.2517
O312       O    0.3381634895    0.0362583230    0.2868828671         -1.3358
O313       O    0.3797135915    0.0362592464    0.3284362873         -1.3313
O314       O    0.3284442307    0.9637482399    0.3797094381         -1.2439
O315       O    0.3797128254    0.9637471136    0.3284402486         -1.3689
O316       O    0.3284413311    0.0362550899    0.3797092871         -1.3567
Cu317     Cu    0.3087364537    0.9999978012    0.3087281787          1.0456
Cu318     Cu    0.3578676008    0.0000034789    0.3578679368          1.0433
C319       C    0.3001066832    0.0469452600    0.3664929070          0.3063
C320       C    0.3664973712    0.9530560201    0.3001032085          0.2977
C321       C    0.3001076260    0.9530568426    0.3664916375          0.2191
C322       C    0.3664964284    0.0469444375    0.3001044780          0.2819
O323       O    0.9972865418    0.3461694126    0.3284376401         -1.3557
O324       O    0.0697928141    0.2948974720    0.3797074738         -1.3655
O325       O    0.0697968024    0.3461663512    0.3284371775         -1.2517
O326       O    0.9972825549    0.2948968006    0.3797116779         -1.3358
O327       O    0.9972813856    0.2533448363    0.3381590989         -1.3313
O328       O    0.0697903491    0.3046144539    0.2868846674         -1.2439
O329       O    0.0697916448    0.2533455076    0.3381548948         -1.3689
O330       O    0.9972853725    0.3046174482    0.2868850611         -1.3567
Cu331     Cu    0.0335420776    0.3243241348    0.3578656491          1.0456
Cu332     Cu    0.0335361091    0.2751907854    0.3087268858          1.0433
C333       C    0.9865955767    0.3329530931    0.3001009035          0.3063
C334       C    0.0804826100    0.2665618271    0.3664916314          0.2977
C335       C    0.0804815681    0.3329520276    0.3001018584          0.2191
C336       C    0.9865966185    0.2665628926    0.3664906765          0.2819
C807       C    0.1352644670    0.2630433406    0.4647299478          0.3708
C808       C    0.1687760253    0.2422063676    0.4547883726          0.3708
C809       C    0.1740446759    0.2291601114    0.4166028258          0.3708
C810       C    0.1458017682    0.2369508283    0.3883588542          0.3708
C811       C    0.1122902099    0.2577878012    0.3983004295          0.3708
C812       C    0.1070215593    0.2708340574    0.4364859763          0.3708
H813       H    0.1313642971    0.2727009588    0.4929971708          0.3708
H814       H    0.1988499790    0.2137362452    0.4092428986          0.3708
H815       H    0.1497019381    0.2272932101    0.3600916313          0.3708
H816       H    0.0822162563    0.2862579236    0.4438459034          0.3708
C797       C    0.2687566688    0.1432683818    0.4155098590          0.3708
C798       C    0.2757475711    0.1352381618    0.4547881814          0.3708
C799       C    0.2905304835    0.0989647458    0.4658225488          0.3708
C800       C    0.2983224936    0.0707215497    0.4375785938          0.3708
C801       C    0.2913315913    0.0787517696    0.3983002713          0.3708
C802       C    0.2765486789    0.1150251856    0.3872659039          0.3708
H803       H    0.2578134739    0.1701201313    0.4073415611          0.3708
H804       H    0.2957055923    0.0930196576    0.4948965727          0.3708
H805       H    0.3092656884    0.0438698002    0.4457468917          0.3708
H806       H    0.2713735700    0.1209702738    0.3581918800          0.3708
C787       C    0.9164567855    0.2786125558    0.4536634220          0.3708
C788       C    0.8983035229    0.2422079150    0.4547873986          0.3708
C789       C    0.9083932888    0.2135938983    0.4276671867          0.3708
C790       C    0.9366363172    0.2213845225    0.3994229982          0.3708
C791       C    0.9547895798    0.2577891633    0.3982990217          0.3708
C792       C    0.9446998139    0.2864031800    0.4254192335          0.3708
H793       H    0.9089877380    0.2997943603    0.4737394230          0.3708
H794       H    0.8949566276    0.1866464070    0.4284982918          0.3708
H795       H    0.9441053647    0.2002027180    0.3793469972          0.3708
H796       H    0.9581364750    0.3133506713    0.4245881284          0.3708
C777       C    0.9153104403    0.2592525578    0.6785399846          0.3708
C778       C    0.9547903068    0.2577887450    0.6687815419          0.3708
C779       C    0.9660271647    0.2485347583    0.6307790055          0.3708
C780       C    0.9377841560    0.2407445844    0.6025349119          0.3708
C781       C    0.8983042894    0.2422083973    0.6122933546          0.3708
C782       C    0.8870674316    0.2514623840    0.6502958909          0.3708
H783       H    0.9069922468    0.2661029116    0.7066717323          0.3708
H784       H    0.9952503772    0.2474509563    0.6235546382          0.3708
H785       H    0.9461023494    0.2338942307    0.5744031642          0.3708
H786       H    0.8578442191    0.2525461859    0.6575202582          0.3708
C767       C    0.1092956775    0.2745838577    0.6318348835          0.3708
C768       C    0.1122894806    0.2577874274    0.6687816299          0.3708
C769       C    0.1435264911    0.2332005508    0.6774845253          0.3708
C770       C    0.1717696986    0.2254101043    0.6492406743          0.3708
C771       C    0.1687758955    0.2422065346    0.6122939278          0.3708
C772       C    0.1375388850    0.2667934113    0.6035910324          0.3708
H773       H    0.0861721763    0.2927845327    0.6253924804          0.3708
H774       H    0.1457434821    0.2207671147    0.7048326512          0.3708
H775       H    0.1948931998    0.2072094294    0.6556830774          0.3708
H776       H    0.1353218940    0.2792268474    0.5762429066          0.3708
C757       C    0.4365457402    0.1341953523    0.3121125387          0.3708
C758       C    0.4547900914    0.1352406180    0.2757507569          0.3708
C759       C    0.4447912854    0.1080419211    0.2471791829          0.3708
C760       C    0.4165481282    0.0797979586    0.2549693905          0.3708
C761       C    0.3983037769    0.0787526929    0.2913311723          0.3708
C762       C    0.4083025829    0.1059513897    0.3199027464          0.3708
H763       H    0.4439474537    0.1543294525    0.3332629247          0.3708
H764       H    0.4582953730    0.1088147623    0.2202634170          0.3708
H765       H    0.4091464146    0.0596638583    0.2338190045          0.3708
H766       H    0.3947984954    0.1051785485    0.3468185123          0.3708
C747       C    0.4237993743    0.2264454512    0.1074666897          0.3708
C748       C    0.3983036174    0.2577942025    0.1122917252          0.3708
C749       C    0.4010507648    0.2813522696    0.1453607445          0.3708
C750       C    0.4292936691    0.2735615854    0.1736047284          0.3708
C751       C    0.4547894259    0.2422128342    0.1687796930          0.3708
C752       C    0.4520422785    0.2186547671    0.1357106737          0.3708
H753       H    0.4217657717    0.2090063626    0.0829870261          0.3708
H754       H    0.3821789831    0.3045572494    0.1489332651          0.3708
H755       H    0.4313272717    0.2910006740    0.1980843921          0.3708
H756       H    0.4709140602    0.1954497872    0.1321381531          0.3708
C737       C    0.3139382493    0.4086027128    0.1626438698          0.3708
C738       C    0.2757485543    0.4212484964    0.1687802976          0.3708
C739       C    0.2453509581    0.4056510303    0.1466728483          0.3708
C740       C    0.2531430569    0.3774077806    0.1184289713          0.3708
C741       C    0.2913327519    0.3647619970    0.1122925436          0.3708
C742       C    0.3217303481    0.3803594631    0.1343999929          0.3708
H743       H    0.3364403660    0.4201488890    0.1790091245          0.3708
H744       H    0.2170821196    0.4150109008    0.1512143107          0.3708
H745       H    0.2306409402    0.3658616044    0.1020637167          0.3708
H746       H    0.3499991866    0.3709995926    0.1298585305          0.3708
C727       C    0.1217805997    0.3739730509    0.2528426590          0.3708
C728       C    0.1122892288    0.3647601993    0.2913288139          0.3708
C729       C    0.1310412254    0.3837911690    0.3220250113          0.3708
C730       C    0.1592845930    0.4120349902    0.3142350539          0.3708
C731       C    0.1687759639    0.4212478418    0.2757488991          0.3708
C732       C    0.1500239672    0.4022168721    0.2450527016          0.3708
H733       H    0.1078992515    0.3598851902    0.2301194999          0.3708
H734       H    0.1240163399    0.3769724512    0.3505132978          0.3708
H735       H    0.1731659412    0.4261228509    0.3369582130          0.3708
H736       H    0.1570488528    0.4090355899    0.2165644152          0.3708
C717       C    0.2468948099    0.5893713665    0.1421199714          0.3708
C718       C    0.2757482488    0.5787514135    0.1687802381          0.3708
C719       C    0.3123939672    0.5963751036    0.1671966876          0.3708
C720       C    0.3201862467    0.6246187466    0.1389528703          0.3708
C721       C    0.2913328078    0.6352386996    0.1122926036          0.3708
C722       C    0.2546870894    0.6176150095    0.1138761541          0.3708
H723       H    0.2197674600    0.5763252583    0.1432922101          0.3708
H724       H    0.3337523399    0.5885148099    0.1869304722          0.3708
H725       H    0.3473135966    0.6376648548    0.1377806316          0.3708
H726       H    0.2333287168    0.6254753033    0.0941423695          0.3708
C707       C    0.1799998061    0.3831456650    0.7824791805          0.3708
C708       C    0.1687753831    0.4212470364    0.7913329965          0.3708
C709       C    0.1293079258    0.4311044995    0.7923963773          0.3708
C710       C    0.1010648915    0.4028605911    0.7846059421          0.3708
C711       C    0.1122893146    0.3647592196    0.7757521260          0.3708
C712       C    0.1517567719    0.3549017566    0.7746887452          0.3708
H713       H    0.2092159758    0.3758485819    0.7816920025          0.3708
H714       H    0.1209983987    0.4593073112    0.7989499742          0.3708
H715       H    0.0718487218    0.4101576741    0.7853931201          0.3708
H716       H    0.1600662989    0.3266989449    0.7681351484          0.3708
C697       C    0.3041030018    0.5718778729    0.9266693293          0.3708
C698       C    0.2757470067    0.5787504681    0.8983006131          0.3708
C699       C    0.2551833242    0.6138667363    0.8981753847          0.3708
C700       C    0.2629756368    0.6421104094    0.9264188725          0.3708
C701       C    0.2913316318    0.6352378142    0.9547875887          0.3708
C702       C    0.3118953144    0.6001215460    0.9549128170          0.3708
H703       H    0.3193254681    0.5458827134    0.9267620308          0.3708
H704       H    0.2341936666    0.6189549182    0.8771769579          0.3708
H705       H    0.2477531705    0.6681055689    0.9263261710          0.3708
H706       H    0.3328849719    0.5950333641    0.9759112439          0.3708
C687       C    0.2808781523    0.3823916598    0.8873485530          0.3708
C688       C    0.2757484660    0.4212480657    0.8983015246          0.3708
C689       C    0.2784112462    0.4318609541    0.9374981996          0.3708
C690       C    0.2862037127    0.4036174366    0.9657419030          0.3708
C691       C    0.2913333991    0.3647610307    0.9547889314          0.3708
C692       C    0.2886706189    0.3541481423    0.9155922564          0.3708
H693       H    0.2789070034    0.3745353658    0.8583328325          0.3708
H694       H    0.2746143549    0.4606226635    0.9456067908          0.3708
H695       H    0.2881748617    0.4114737306    0.9947576235          0.3708
H696       H    0.2924675102    0.3253864329    0.9074836652          0.3708
C677       C    0.4381519317    0.7883466252    0.1476710718          0.3708
C678       C    0.4547908045    0.7577904158    0.1687794607          0.3708
C679       C    0.4431864462    0.7194434000    0.1616441528          0.3708
C680       C    0.4149432151    0.7116525936    0.1334004560          0.3708
C681       C    0.3983043424    0.7422088030    0.1122920670          0.3708
C682       C    0.4099087007    0.7805558188    0.1194273749          0.3708
H683       H    0.4467421710    0.8167333771    0.1529530529          0.3708
H684       H    0.4555021134    0.6968245889    0.1772682815          0.3708
H685       H    0.4063529759    0.6832658417    0.1281184748          0.3708
H686       H    0.3975930335    0.8031746299    0.1038032463          0.3708
C667       C    0.4153149896    0.8549719250    0.2744092683          0.3708
C668       C    0.4547915140    0.8647617726    0.2757493026          0.3708
C669       C    0.4660247892    0.9027949029    0.2848795867          0.3708
C670       C    0.4377815399    0.9310381857    0.2926698366          0.3708
C671       C    0.3983050155    0.9212483381    0.2913298024          0.3708
C672       C    0.3870717403    0.8832152078    0.2821995182          0.3708
H673       H    0.4069994482    0.8268175298    0.2676504865          0.3708
H674       H    0.4952455278    0.9100425169    0.2858717643          0.3708
H675       H    0.4460970813    0.9591925809    0.2994286184          0.3708
H676       H    0.3578510017    0.8759675938    0.2812073406          0.3708
C657       C    0.7630434812    0.1068121465    0.4616994040          0.3708
C658       C    0.7913322269    0.1352384190    0.4547872490          0.3708
C659       C    0.8118291308    0.1354209836    0.4196315112          0.3708
C660       C    0.8040372890    0.1071772758    0.3913879284          0.3708
C661       C    0.7757485432    0.0787510033    0.3983000834          0.3708
C662       C    0.7552516393    0.0785684387    0.4334558212          0.3708
H663       H    0.7478704485    0.1066770013    0.4877237814          0.3708
H664       H    0.8327690086    0.1564620153    0.4145140460          0.3708
H665       H    0.8192103217    0.1073124210    0.3653635510          0.3708
H666       H    0.7343117616    0.0575274071    0.4385732864          0.3708
C647       C    0.6413991923    0.9274382324    0.2618675867          0.3708
C648       C    0.6687786279    0.9212494816    0.2913319672          0.3708
C649       C    0.6679147434    0.8868171420    0.3130057904          0.3708
C650       C    0.6396714233    0.8585735531    0.3052152331          0.3708
C651       C    0.6122919877    0.8647623039    0.2757508526          0.3708
C652       C    0.6131558722    0.8991946435    0.2540770294          0.3708
H653       H    0.6420386912    0.9529271072    0.2458233279          0.3708
H654       H    0.6881808770    0.8822351609    0.3348159060          0.3708
H655       H    0.6390319244    0.8330846783    0.3212594918          0.3708
H656       H    0.5928897386    0.9037766245    0.2322669137          0.3708
C637       C    0.6465496359    0.1455326533    0.2951537836          0.3708
C638       C    0.6122907960    0.1352401101    0.2757514185          0.3708
C639       C    0.6062750187    0.0967039986    0.2641390163          0.3708
C640       C    0.6345180814    0.0684604304    0.2719289791          0.3708
C641       C    0.6687769213    0.0787529736    0.2913313441          0.3708
C642       C    0.6747926986    0.1172890851    0.3029437464          0.3708
H643       H    0.6510028736    0.1740593851    0.3037499775          0.3708
H644       H    0.5809165567    0.0890842752    0.2497770871          0.3708
H645       H    0.6300648437    0.0399336986    0.2633327852          0.3708
H646       H    0.7001511606    0.1249088085    0.3173056755          0.3708
C627       C    0.3118937171    0.1138683881    0.6689057048          0.3708
C628       C    0.2913309007    0.0787506887    0.6687807042          0.3708
C629       C    0.2629759503    0.0718765393    0.6404119410          0.3708
C630       C    0.2551838163    0.1001200895    0.6121681785          0.3708
C631       C    0.2757466327    0.1352377889    0.6122931792          0.3708
C632       C    0.3041015831    0.1421119383    0.6406619423          0.3708
H633       H    0.3328837453    0.1189570441    0.6899059580          0.3708
H634       H    0.2477545293    0.0458823254    0.6403185182          0.3708
H635       H    0.2341937881    0.0950314335    0.5911679253          0.3708
H636       H    0.3193230041    0.1681061521    0.6407553651          0.3708
C617       C    0.2771690079    0.9040806069    0.6018978643          0.3708
C618       C    0.2757452102    0.8647606467    0.6122914949          0.3708
C619       C    0.2821135858    0.8536840108    0.6509290005          0.3708
C620       C    0.2899057589    0.8819273351    0.6791728755          0.3708
C621       C    0.2913295566    0.9212472953    0.6687792448          0.3708
C622       C    0.2849611810    0.9323239312    0.6301417393          0.3708
H623       H    0.2724547558    0.9122801945    0.5732960745          0.3708
H624       H    0.2810598973    0.8245791655    0.6586235517          0.3708
H625       H    0.2946200110    0.8737277475    0.7077746653          0.3708
H626       H    0.2860148695    0.9614287765    0.6224471881          0.3708
C607       C    0.2796432595    0.9038047930    0.4655852189          0.3708
C608       C    0.2757469567    0.8647622929    0.4547866164          0.3708
C609       C    0.2796431373    0.8539634261    0.4157442432          0.3708
C610       C    0.2874356207    0.8822070595    0.3875004726          0.3708
C611       C    0.2913319235    0.9212495597    0.3982990750          0.3708
C612       C    0.2874357429    0.9320484264    0.4373414482          0.3708
H613       H    0.2767590739    0.9117987593    0.4944867159          0.3708
H614       H    0.2767592311    0.8250639645    0.4077499205          0.3708
H615       H    0.2903198064    0.8742130932    0.3585989756          0.3708
H616       H    0.2903196491    0.9609478880    0.4453357709          0.3708
C597       C    0.1027388126    0.7399465133    0.4377944021          0.3708
C598       C    0.1122888130    0.7422115721    0.3982999413          0.3708
C599       C    0.1500818675    0.7522673079    0.3870493901          0.3708
C600       C    0.1783249216    0.7600579849    0.4152932996          0.3708
C601       C    0.1687749212    0.7577929261    0.4547877603          0.3708
C602       C    0.1309818666    0.7477371903    0.4660383116          0.3708
H603       H    0.0747621358    0.7325026569    0.4461227322          0.3708
H604       H    0.1571519400    0.7539442147    0.3578153745          0.3708
H605       H    0.2063015983    0.7675018413    0.4069649694          0.3708
H606       H    0.1239117942    0.7460602835    0.4952723271          0.3708
C587       C    0.1039080181    0.5958762427    0.2973591465          0.3708
C588       C    0.1122900947    0.6352399083    0.2913296379          0.3708
C589       C    0.1489150412    0.6463598157    0.2775102268          0.3708
C590       C    0.1771579110    0.6181160576    0.2697203243          0.3708
C591       C    0.1687758344    0.5787523921    0.2757498330          0.3708
C592       C    0.1321508879    0.5676324847    0.2895692441          0.3708
H593       H    0.0767960447    0.5876446230    0.3075891002          0.3708
H594       H    0.1551205836    0.6754970129    0.2730467685          0.3708
H595       H    0.2042698844    0.6263476774    0.2594903706          0.3708
H596       H    0.1259453455    0.5384952875    0.2940327023          0.3708
C577       C    0.9244204750    0.5734698724    0.3065074894          0.3708
C578       C    0.8983033589    0.5787527417    0.2757491200          0.3708
C579       C    0.9004293044    0.6122794951    0.2527811748          0.3708
C580       C    0.9286723660    0.6405233791    0.2605715991          0.3708
C581       C    0.9547894821    0.6352405098    0.2913299685          0.3708
C582       C    0.9526635366    0.6017137565    0.3142979137          0.3708
H583       H    0.9228467231    0.5486513666    0.3235097346          0.3708
H584       H    0.8810975752    0.6161909172    0.2300132122          0.3708
H585       H    0.9302461179    0.6653418849    0.2435693539          0.3708
H586       H    0.9719952658    0.5978023343    0.3370658763          0.3708
C567       C    0.8871594917    0.3827869141    0.2830053052          0.3708
C568       C    0.8983033100    0.4212482249    0.2757489158          0.3708
C569       C    0.9376900212    0.4314657262    0.2762822299          0.3708
C570       C    0.9659329141    0.4032219167    0.2840719334          0.3708
C571       C    0.9547890959    0.3647606059    0.2913283229          0.3708
C572       C    0.9154023847    0.3545431046    0.2907950087          0.3708
H573       H    0.8580030951    0.3752233092    0.2826105143          0.3708
H574       H    0.9459398823    0.4599349751    0.2709110931          0.3708
H575       H    0.9950893107    0.4107855216    0.2844667244          0.3708
H576       H    0.9071525236    0.3260738557    0.2961661455          0.3708
C557       C    0.7453496977    0.3868706992    0.1278915587          0.3708
C558       C    0.7757469693    0.3647630435    0.1122931465          0.3708
C559       C    0.8139365729    0.3708988401    0.1249384374          0.3708
C560       C    0.8217289048    0.3991422924    0.1531821405          0.3708
C561       C    0.7913316332    0.4212499481    0.1687805527          0.3708
C562       C    0.7531420296    0.4151141515    0.1561352619          0.3708
H563       H    0.7170794716    0.3823286160    0.1185307590          0.3708
H564       H    0.8364377339    0.3545350260    0.1133929482          0.3708
H565       H    0.8499991309    0.4036843756    0.1625429402          0.3708
H566       H    0.7306408686    0.4314779655    0.1676807510          0.3708
C547       C    0.6306745279    0.2711483606    0.1071929909          0.3708
C548       C    0.6687752594    0.2577934125    0.1122922305          0.3708
C549       C    0.6786329171    0.2366477646    0.1456355923          0.3708
C550       C    0.6503898433    0.2288570648    0.1738797145          0.3708
C551       C    0.6122891118    0.2422120130    0.1687804749          0.3708
C552       C    0.6024314541    0.2633576609    0.1354371131          0.3708
H553       H    0.6233773008    0.2868016325    0.0825102425          0.3708
H554       H    0.7068352551    0.2267618102    0.1494110865          0.3708
H555       H    0.6576870704    0.2132037930    0.1985624629          0.3708
H556       H    0.5742291161    0.2732436153    0.1316616189          0.3708
C537       C    0.4540881802    0.1165991720    0.7551604480          0.3708
C538       C    0.4547909963    0.1352397579    0.7913290685          0.3708
C539       C    0.4272503779    0.1256366669    0.8197078657          0.3708
C540       C    0.3990069434    0.0973929900    0.8119180425          0.3708
C541       C    0.3983041273    0.0787524041    0.7757494220          0.3708
C542       C    0.4258447456    0.0883554951    0.7473706248          0.3708
H543       H    0.4744753912    0.1237079536    0.7341527669          0.3708
H544       H    0.4277697283    0.1394340585    0.8464806482          0.3708
H545       H    0.3786197324    0.0902842084    0.8329257235          0.3708
H546       H    0.4253253952    0.0745581035    0.7205978423          0.3708
C527       C    0.6151186014    0.2185771073    0.9313071504          0.3708
C528       C    0.6122895326    0.2422107245    0.8982982473          0.3708
C529       C    0.6377032132    0.2736351377    0.8935335255          0.3708
C530       C    0.6659459625    0.2814259338    0.9217777069          0.3708
C531       C    0.6687750313    0.2577923167    0.9547866100          0.3708
C532       C    0.6433613507    0.2263679034    0.9595513318          0.3708
H533       H    0.5963058768    0.1953148793    0.9348342821          0.3708
H534       H    0.6356099508    0.2911296517    0.8691003020          0.3708
H535       H    0.6847586871    0.3046881618    0.9182505752          0.3708
H536       H    0.6454546131    0.2088733895    0.9839845553          0.3708
C517       C    0.4153836975    0.2368109335    0.8896991974          0.3708
C518       C    0.4547906598    0.2422115460    0.8982988760          0.3708
C519       C    0.4659545302    0.2554029214    0.9351424339          0.3708
C520       C    0.4377114384    0.2631936842    0.9633863133          0.3708
C521       C    0.3983044761    0.2577930717    0.9547866347          0.3708
C522       C    0.3871406056    0.2446016963    0.9179430767          0.3708
H523       H    0.4071195336    0.2270458893    0.8624253947          0.3708
H524       H    0.4951237770    0.2594008531    0.9415090515          0.3708
H525       H    0.4459756022    0.2729587283    0.9906601159          0.3708
H526       H    0.3579713589    0.2406037646    0.9115764592          0.3708
C507       C    0.9070401210    0.7193181151    0.4448198979          0.3708
C508       C    0.8983037375    0.7577940254    0.4547886717          0.3708
C509       C    0.9178102996    0.7884792493    0.4365133987          0.3708
C510       C    0.9460532452    0.7806885629    0.4082693521          0.3708
C511       C    0.9547896287    0.7422126526    0.3983005783          0.3708
C512       C    0.9352830666    0.7115274287    0.4165758512          0.3708
H513       H    0.8926001984    0.6966030793    0.4583483467          0.3708
H514       H    0.9113442769    0.8169599525    0.4438916713          0.3708
H515       H    0.9604931678    0.8034035988    0.3947409033          0.3708
H516       H    0.9417490893    0.6830467256    0.4091975787          0.3708
C497       C    0.8118951794    0.8998810607    0.4549159861          0.3708
C498       C    0.7913340224    0.8647623932    0.4547899879          0.3708
C499       C    0.7629808111    0.8578868861    0.4264198156          0.3708
C500       C    0.7551887567    0.8861300466    0.3981756415          0.3708
C501       C    0.7757499137    0.9212487142    0.3983016397          0.3708
C502       C    0.8041031250    0.9281242212    0.4266718120          0.3708
H503       H    0.8328839203    0.9049707218    0.4759172826          0.3708
H504       H    0.7477606185    0.8318919556    0.4263256543          0.3708
H505       H    0.7342000158    0.8810403856    0.3771743450          0.3708
H506       H    0.8193233177    0.9541191517    0.4267659733          0.3708
C487       C    0.9508268901    0.7798423463    0.6538043291          0.3708
C488       C    0.9547878198    0.7422108883    0.6687809070          0.3708
C489       C    0.9305059646    0.7123709788    0.6555136201          0.3708
C490       C    0.9022631797    0.7201625274    0.6272697552          0.3708
C491       C    0.8983022500    0.7577939854    0.6122931773          0.3708
C492       C    0.9225841052    0.7876338949    0.6255604642          0.3708
H493       H    0.9688017700    0.8019316300    0.6636255674          0.3708
H494       H    0.9334370622    0.6845153630    0.6665988100          0.3708
H495       H    0.8842882998    0.6980732438    0.6174485168          0.3708
H496       H    0.9196530076    0.8154895107    0.6144752743          0.3708
C477       C    0.1076385128    0.7737748149    0.6435199909          0.3708
C478       C    0.1122870192    0.7422091089    0.6687810888          0.3708
C479       C    0.1451786978    0.7184343715    0.6657982371          0.3708
C480       C    0.1734218701    0.7262253400    0.6375542875          0.3708
C481       C    0.1687733637    0.7577910460    0.6122931896          0.3708
C482       C    0.1358816851    0.7815657835    0.6152760413          0.3708
H483       H    0.0832901273    0.7913742959    0.6457280759          0.3708
H484       H    0.1486205466    0.6950687957    0.6844963176          0.3708
H485       H    0.1977702556    0.7086258590    0.6353462025          0.3708
H486       H    0.1324398363    0.8049313593    0.5965779608          0.3708
C467       C    0.1369264125    0.6223613114    0.7460324965          0.3708
C468       C    0.1122881169    0.6352377927    0.7757519187          0.3708
C469       C    0.1158931005    0.6198709876    0.8132615408          0.3708
C470       C    0.1441363796    0.5916277012    0.8210517407          0.3708
C471       C    0.1687746751    0.5787512199    0.7913323185          0.3708
C472       C    0.1651696915    0.5941180249    0.7538226964          0.3708
H473       H    0.1342577882    0.6337367385    0.7182656334          0.3708
H474       H    0.0976560358    0.6294016270    0.8352609386          0.3708
H475       H    0.1468050038    0.5802522741    0.8488186038          0.3708
H476       H    0.1834067562    0.5845873855    0.7318232986          0.3708
C457       C    0.7487324865    0.9140446877    0.6392131062          0.3708
C458       C    0.7757493736    0.9212504246    0.6687808825          0.3708
C459       C    0.8105580909    0.9002125587    0.6701050609          0.3708
C460       C    0.8183499210    0.8719689559    0.6418614629          0.3708
C461       C    0.7913330339    0.8647632189    0.6122936865          0.3708
C462       C    0.7565243166    0.8858010848    0.6109695082          0.3708
H463       H    0.7229649944    0.9296181728    0.6382328703          0.3708
H464       H    0.8305569963    0.9055455538    0.6919910657          0.3708
H465       H    0.8441174131    0.8563954707    0.6428416988          0.3708
H466       H    0.7365254112    0.8804680897    0.5890835033          0.3708
C447       C    0.6680743269    0.0973934510    0.8119177660          0.3708
C448       C    0.6687773603    0.0787529717    0.7757490971          0.3708
C449       C    0.6412372706    0.0883560553    0.7473701197          0.3708
C450       C    0.6129941475    0.1165996182    0.7551598113          0.3708
C451       C    0.6122911141    0.1352400976    0.7913284802          0.3708
C452       C    0.6398312038    0.1256370140    0.8197074576          0.3708
H453       H    0.6884611466    0.0902846749    0.8329255805          0.3708
H454       H    0.6417567819    0.0745587426    0.7205973014          0.3708
H455       H    0.5926073278    0.1237083944    0.7341519968          0.3708
H456       H    0.6393116925    0.1394343266    0.8464802759          0.3708
C437       C    0.7635332456    0.1171491621    0.6744873856          0.3708
C438       C    0.7757489379    0.0787525927    0.6687803482          0.3708
C439       C    0.7957566486    0.0685994581    0.6348292133          0.3708
C440       C    0.8035486672    0.0968428930    0.6065851159          0.3708
C441       C    0.7913329750    0.1352394624    0.6122921533          0.3708
C442       C    0.7713252642    0.1453925969    0.6462432882          0.3708
H443       H    0.7487223428    0.1246651188    0.6996200439          0.3708
H444       H    0.8047992938    0.0401781326    0.6306038100          0.3708
H445       H    0.8183595700    0.0893269362    0.5814524576          0.3708
H446       H    0.7622826190    0.1738139225    0.6504686915          0.3708
C427       C    0.6062922423    0.8918728873    0.7615767160          0.3708
C428       C    0.6122905649    0.8647600084    0.7913263782          0.3708
C429       C    0.6465320017    0.8658913978    0.8132867856          0.3708
C430       C    0.6747751159    0.8941356663    0.8054975309          0.3708
C431       C    0.6687767933    0.9212485452    0.7757478688          0.3708
C432       C    0.6345353565    0.9201171558    0.7537874614          0.3708
H433       H    0.5809446852    0.8910353652    0.7453203105          0.3708
H434       H    0.6509730224    0.8458225770    0.8353080748          0.3708
H435       H    0.7001226730    0.8949731884    0.8217539365          0.3708
H436       H    0.6300943358    0.9401859766    0.7317661722          0.3708
C417       C    0.4502201737    0.8790805357    0.7535075174          0.3708
C418       C    0.4547889522    0.8647600355    0.7913254266          0.3708
C419       C    0.4311146081    0.8786832654    0.8213541774          0.3708
C420       C    0.4028714855    0.9069269955    0.8135650188          0.3708
C421       C    0.3983027070    0.9212474957    0.7757471096          0.3708
C422       C    0.4219770510    0.9073242658    0.7457183589          0.3708
H423       H    0.4677453375    0.8687737292    0.7312784422          0.3708
H424       H    0.4344956525    0.8680837227    0.8493478097          0.3708
H425       H    0.3853463217    0.9172338021    0.8357940941          0.3708
H426       H    0.4185960066    0.9179238085    0.7177247265          0.3708
C407       C    0.4277880972    0.7151256455    0.9474818792          0.3708
C408       C    0.3983043309    0.7422071416    0.9547858848          0.3708
C409       C    0.3970634301    0.7770789468    0.9338454520          0.3708
C410       C    0.4253062956    0.7848692558    0.9056010136          0.3708
C411       C    0.4547900619    0.7577877596    0.8982970081          0.3708
C412       C    0.4560309626    0.7229159544    0.9192374408          0.3708
H413       H    0.4287066860    0.6893114520    0.9629832385          0.3708
H414       H    0.3752396119    0.7971256776    0.9392511883          0.3708
H415       H    0.4243877067    0.8106834492    0.8900996543          0.3708
H416       H    0.4778547809    0.7028692236    0.9138317046          0.3708
C397       C    0.6800022871    0.7540785855    0.9175149494          0.3708
C398       C    0.6687750961    0.7422070909    0.9547864178          0.3708
C399       C    0.6293054516    0.7381257653    0.9638133093          0.3708
C400       C    0.6010629981    0.7459159343    0.9355687325          0.3708
C401       C    0.6122901891    0.7577874290    0.8982972641          0.3708
C402       C    0.6517598336    0.7618687545    0.8892703725          0.3708
H403       H    0.7092200759    0.7570998265    0.9108327049          0.3708
H404       H    0.6209938756    0.7293383980    0.9914018035          0.3708
H405       H    0.5718452094    0.7428946933    0.9422509769          0.3708
H406       H    0.6600714096    0.7706561218    0.8616818784          0.3708
C387       C    0.7466495121    0.6090810335    0.1234830285          0.3708
C388       C    0.7757464346    0.6352391005    0.1122933435          0.3708
C389       C    0.8126355998    0.6331536105    0.1293473842          0.3708
C390       C    0.8204278424    0.6049100535    0.1575911098          0.3708
C391       C    0.7913309199    0.5787519865    0.1687807948          0.3708
C392       C    0.7544417547    0.5808374765    0.1517267542          0.3708
H393       H    0.7193419483    0.6106248378    0.1108586088          0.3708
H394       H    0.8341742059    0.6525156527    0.1210653588          0.3708
H395       H    0.8477354062    0.6033662492    0.1702155295          0.3708
H396       H    0.7329031487    0.5614754343    0.1600087796          0.3708
C377       C    0.6517829017    0.7600553118    0.1783306478          0.3708
C378       C    0.6122900241    0.7577906770    0.1687801680          0.3708
C379       C    0.6010401135    0.7477346592    0.1309858549          0.3708
C380       C    0.6292830804    0.7399432762    0.1027420217          0.3708
C381       C    0.6687759579    0.7422079110    0.1122925015          0.3708
C382       C    0.6800258686    0.7522639288    0.1500868146          0.3708
H383       H    0.6601107577    0.7674993769    0.2063082561          0.3708
H384       H    0.5718072698    0.7460580664    0.1239154276          0.3708
H385       H    0.6209552244    0.7324992110    0.0747644134          0.3708
H386       H    0.7092587122    0.7539405216    0.1571572419          0.3708
C367       C    0.8874569453    0.6177443385    0.7870878946          0.3708
C368       C    0.8983014521    0.5787510842    0.7913325913          0.3708
C369       C    0.9373892650    0.5680015605    0.7877867788          0.3708
C370       C    0.9656325711    0.5962452910    0.7799962696          0.3708
C371       C    0.9547880643    0.6352385453    0.7757515729          0.3708
C372       C    0.9157002514    0.6459880690    0.7792973854          0.3708
H373       H    0.8585218111    0.6257017781    0.7897127169          0.3708
H374       H    0.9454175674    0.5391385521    0.7909285760          0.3708
H375       H    0.9945677054    0.5882878514    0.7773714473          0.3708
H376       H    0.9076719490    0.6748510774    0.7761555882          0.3708
C357       C    0.7528434255    0.5881025379    0.9076521190          0.3708
C358       C    0.7913294385    0.5787519968    0.8983021686          0.3708
C359       C    0.8220233653    0.5976448340    0.9171959700          0.3708
C360       C    0.8142312790    0.6258882124    0.9454397217          0.3708
C361       C    0.7757452660    0.6352387536    0.9547896721          0.3708
C362       C    0.7450513393    0.6163459163    0.9358958707          0.3708
H363       H    0.7301219473    0.5741169312    0.8936657985          0.3708
H364       H    0.8505115467    0.5907241946    0.9102757679          0.3708
H365       H    0.8369527573    0.6398738192    0.9594260422          0.3708
H366       H    0.7165631578    0.6232665558    0.9428160728          0.3708
C347       C    0.7968616915    0.3818497263    0.8897465612          0.3708
C348       C    0.7913302495    0.4212492550    0.8983011380          0.3708
C349       C    0.7780066005    0.4324050723    0.9350994837          0.3612
C350       C    0.7702143935    0.4041613609    0.9633432527          0.3708
C351       C    0.7757458356    0.3647618322    0.9547886759          0.3708
C352       C    0.7890694846    0.3536060149    0.9179903301          0.3708
H353       H    0.8067246525    0.3735915238    0.8625062274          0.3708
H354       H    0.7739118251    0.4615688166    0.9414327156          0.3708
H355       H    0.7603514326    0.4124195634    0.9905835865          0.3708
H356       H    0.7931642600    0.3244422706    0.9116570982          0.3708
C337       C    0.8974302672    0.3856313495    0.8110016167          0.3708
C338       C    0.8983024923    0.4212470772    0.7913322884          0.3708
C339       C    0.9274176432    0.4286191293    0.7638729609          0.3708
C340       C    0.9556605689    0.4003754538    0.7560829616          0.3708
C341       C    0.9547883437    0.3647597261    0.7757522899          0.3708
C342       C    0.9256731928    0.3573876740    0.8032116174          0.3708
H343       H    0.8758774931    0.3801741161    0.8313286513          0.3708
H344       H    0.9280641826    0.4549819977    0.7493129250          0.3708
H345       H    0.9772133429    0.4058326872    0.7357559269          0.3708
H346       H    0.9250266535    0.3310248056    0.8177716533          0.3708
loop_
_geom_bond_atom_site_label_1
_geom_bond_atom_site_label_2
_geom_bond_distance
_geom_bond_site_symmetry_2
_ccdc_geom_bond_type
O1          Cu9 1.951       .   S
O1          C11 1.250       .   A
O2          Cu9 1.951       .   S
O2          C12 1.250       .   A
O3          Cu9 1.951       .   S
O3          C13 1.250       .   A
O4          Cu9 1.951       .   S
O4          C14 1.250       .   A
O5         Cu10 1.951       .   S
O5          C14 1.250       .   A
O6         Cu10 1.951       .   S
O6          C13 1.251       .   A
O7         Cu10 1.951       .   S
O7          C12 1.250       .   A
O8         Cu10 1.951       .   S
O8          C11 1.250       .   A
Cu9        Cu10 2.630       .   S
C11        C338 1.734       .   S
C12        C358 1.734       .   S
C13        C368 1.734       .   S
C14        C348 1.734       .   S
O15        Cu23 1.951       .   S
O15         C25 1.250       .   A
O16        Cu23 1.951       .   S
O16         C26 1.250       .   A
O17        Cu23 1.951       .   S
O17         C27 1.250       .   A
O18        Cu23 1.951       .   S
O18         C28 1.250       .   A
O19        Cu24 1.951       .   S
O19         C28 1.250       .   A
O20        Cu24 1.951       .   S
O20         C27 1.251       .   A
O21        Cu24 1.951       .   S
O21         C26 1.250       .   A
O22        Cu24 1.951       .   S
O22         C25 1.250       .   A
Cu23       Cu24 2.630       .   S
C25        C398 1.734       .   S
C26        C388 1.734       .   S
C27        C381 1.734       .   S
C28        C361 1.734   1_554   S
O29        Cu37 1.951       .   S
O29         C39 1.250       .   A
O30        Cu37 1.951       .   S
O30         C40 1.250       .   A
O31        Cu37 1.951       .   S
O31         C41 1.250       .   A
O32        Cu37 1.951       .   S
O32         C42 1.250       .   A
O33        Cu38 1.951       .   S
O33         C42 1.250       .   A
O34        Cu38 1.951       .   S
O34         C41 1.251       .   A
O35        Cu38 1.951       .   S
O35         C40 1.250       .   A
O36        Cu38 1.951       .   S
O36         C39 1.250       .   A
Cu37       Cu38 2.630       .   S
C39        C401 1.734   1_556   S
C40        C418 1.734       .   S
C41        C411 1.734       .   S
C42        C428 1.734       .   S
O43        Cu51 1.951       .   S
O43         C53 1.250       .   A
O44        Cu51 1.951       .   S
O44         C54 1.250       .   A
O45        Cu51 1.951       .   S
O45         C55 1.250       .   A
O46        Cu51 1.951       .   S
O46         C56 1.250       .   A
O47        Cu52 1.951       .   S
O47         C56 1.250       .   A
O48        Cu52 1.951       .   S
O48         C55 1.251       .   A
O49        Cu52 1.951       .   S
O49         C54 1.250       .   A
O50        Cu52 1.951       .   S
O50         C53 1.250       .   A
Cu51       Cu52 2.630       .   S
C53        C448 1.734       .   S
C54        C458 1.734       .   S
C55        C431 1.734   1_545   S
C56        C438 1.734       .   S
O57        Cu65 1.951       .   S
O57         C67 1.250       .   A
O58        Cu65 1.951       .   S
O58         C68 1.250       .   A
O59        Cu65 1.951       .   S
O59         C69 1.250       .   A
O60        Cu65 1.951       .   S
O60         C70 1.250       .   A
O61        Cu66 1.951       .   S
O61         C70 1.250       .   A
O62        Cu66 1.951       .   S
O62         C69 1.251       .   A
O63        Cu66 1.951       .   S
O63         C68 1.250       .   A
O64        Cu66 1.951       .   S
O64         C67 1.250       .   A
Cu65       Cu66 2.630       .   S
C67        C468 1.734       .   S
C68        C488 1.734       .   S
C69        C371 1.734   1_455   S
C70        C478 1.734       .   S
O71        Cu79 1.951       .   S
O71         C81 1.250       .   A
O72        Cu79 1.951       .   S
O72         C82 1.250       .   A
O73        Cu79 1.951       .   S
O73         C83 1.250       .   A
O74        Cu79 1.951       .   S
O74         C84 1.250       .   A
O75        Cu80 1.951       .   S
O75         C84 1.250       .   A
O76        Cu80 1.951       .   S
O76         C83 1.251       .   A
O77        Cu80 1.951       .   S
O77         C82 1.250       .   A
O78        Cu80 1.951       .   S
O78         C81 1.250       .   A
Cu79       Cu80 2.630       .   S
C81        C461 1.734   1_565   S
C82        C508 1.734       .   S
C83        C498 1.734       .   S
C84        C491 1.734   1_655   S
O85        Cu93 1.951       .   S
O85         C95 1.250       .   A
O86        Cu93 1.951       .   S
O86         C96 1.250       .   A
O87        Cu93 1.951       .   S
O87         C97 1.250       .   A
O88        Cu93 1.951       .   S
O88         C98 1.250       .   A
O89        Cu94 1.951       .   S
O89         C98 1.250       .   A
O90        Cu94 1.951       .   S
O90         C97 1.251       .   A
O91        Cu94 1.951       .   S
O91         C96 1.250       .   A
O92        Cu94 1.951       .   S
O92         C95 1.250       .   A
Cu93       Cu94 2.630       .   S
C95        C518 1.734       .   S
C96        C451 1.734       .   S
C97        C528 1.734       .   S
C98        C538 1.734       .   S
O99       Cu107 1.951       .   S
O99        C109 1.250       .   A
O100      Cu107 1.951       .   S
O100       C110 1.250       .   A
O101      Cu107 1.951       .   S
O101       C111 1.250       .   A
O102      Cu107 1.951       .   S
O102       C112 1.250       .   A
O103      Cu108 1.951       .   S
O103       C112 1.250       .   A
O104      Cu108 1.951       .   S
O104       C111 1.251       .   A
O105      Cu108 1.951       .   S
O105       C110 1.250       .   A
O106      Cu108 1.951       .   S
O106       C109 1.250       .   A
Cu107     Cu108 2.630       .   S
C109       C531 1.734   1_554   S
C110       C558 1.734       .   S
C111       C548 1.734       .   S
C112       C351 1.734   1_554   S
O113      Cu121 1.951       .   S
O113       C123 1.250       .   A
O114      Cu121 1.951       .   S
O114       C124 1.250       .   A
O115      Cu121 1.951       .   S
O115       C125 1.250       .   A
O116      Cu121 1.951       .   S
O116       C126 1.250       .   A
O117      Cu122 1.951       .   S
O117       C126 1.250       .   A
O118      Cu122 1.951       .   S
O118       C125 1.251       .   A
O119      Cu122 1.951       .   S
O119       C124 1.250       .   A
O120      Cu122 1.951       .   S
O120       C123 1.250       .   A
Cu121     Cu122 2.630       .   S
C123       C391 1.734       .   S
C124       C568 1.734       .   S
C125       C561 1.734       .   S
C126       C578 1.734       .   S
O127      Cu135 1.951       .   S
O127       C137 1.250       .   A
O128      Cu135 1.951       .   S
O128       C138 1.250       .   A
O129      Cu135 1.951       .   S
O129       C139 1.250       .   A
O130      Cu135 1.951       .   S
O130       C140 1.250       .   A
O131      Cu136 1.951       .   S
O131       C140 1.250       .   A
O132      Cu136 1.951       .   S
O132       C139 1.251       .   A
O133      Cu136 1.951       .   S
O133       C138 1.250       .   A
O134      Cu136 1.951       .   S
O134       C137 1.250       .   A
Cu135     Cu136 2.630       .   S
C137       C511 1.734   1_455   S
C138       C588 1.734       .   S
C139       C598 1.734       .   S
C140       C581 1.734   1_455   S
O141      Cu149 1.951       .   S
O141       C151 1.250       .   A
O142      Cu149 1.951       .   S
O142       C152 1.250       .   A
O143      Cu149 1.951       .   S
O143       C153 1.250       .   A
O144      Cu149 1.951       .   S
O144       C154 1.250       .   A
O145      Cu150 1.951       .   S
O145       C154 1.250       .   A
O146      Cu150 1.951       .   S
O146       C153 1.251       .   A
O147      Cu150 1.951       .   S
O147       C152 1.250       .   A
O148      Cu150 1.951       .   S
O148       C151 1.250       .   A
Cu149     Cu150 2.630       .   S
C151       C481 1.734       .   S
C152       C608 1.734       .   S
C153       C601 1.734       .   S
C154       C618 1.734       .   S
O155      Cu163 1.951       .   S
O155       C165 1.250       .   A
O156      Cu163 1.951       .   S
O156       C166 1.250       .   A
O157      Cu163 1.951       .   S
O157       C167 1.250       .   A
O158      Cu163 1.951       .   S
O158       C168 1.250       .   A
O159      Cu164 1.951       .   S
O159       C168 1.250       .   A
O160      Cu164 1.951       .   S
O160       C167 1.251       .   A
O161      Cu164 1.951       .   S
O161       C166 1.250       .   A
O162      Cu164 1.951       .   S
O162       C165 1.250       .   A
Cu163     Cu164 2.630       .   S
C165       C541 1.734   1_565   S
C166       C621 1.734       .   S
C167       C421 1.734       .   S
C168       C628 1.734       .   S
O169      Cu177 1.951       .   S
O169       C179 1.250       .   A
O170      Cu177 1.951       .   S
O170       C180 1.250       .   A
O171      Cu177 1.951       .   S
O171       C181 1.250       .   A
O172      Cu177 1.951       .   S
O172       C182 1.250       .   A
O173      Cu178 1.951       .   S
O173       C182 1.250       .   A
O174      Cu178 1.951       .   S
O174       C181 1.251       .   A
O175      Cu178 1.951       .   S
O175       C180 1.250       .   A
O176      Cu178 1.951       .   S
O176       C179 1.250       .   A
Cu177     Cu178 2.630       .   S
C179       C501 1.734   1_545   S
C180       C641 1.734       .   S
C181       C661 1.734       .   S
C182       C648 1.734       .   S
O183      Cu191 1.951       .   S
O183       C193 1.250       .   A
O184      Cu191 1.951       .   S
O184       C194 1.250       .   A
O185      Cu191 1.951       .   S
O185       C195 1.250       .   A
O186      Cu191 1.951       .   S
O186       C196 1.250       .   A
O187      Cu192 1.951       .   S
O187       C196 1.250       .   A
O188      Cu192 1.951       .   S
O188       C195 1.251       .   A
O189      Cu192 1.951       .   S
O189       C194 1.250       .   A
O190      Cu192 1.951       .   S
O190       C193 1.250       .   A
Cu191     Cu192 2.630       .   S
C193       C678 1.734       .   S
C194       C651 1.734   1_565   S
C195       C378 1.734       .   S
C196       C668 1.734       .   S
O197      Cu205 1.951       .   S
O197       C207 1.250       .   A
O198      Cu205 1.951       .   S
O198       C208 1.250       .   A
O199      Cu205 1.951       .   S
O199       C209 1.250       .   A
O200      Cu205 1.951       .   S
O200       C210 1.250       .   A
O201      Cu206 1.951       .   S
O201       C210 1.250       .   A
O202      Cu206 1.951       .   S
O202       C209 1.251       .   A
O203      Cu206 1.951       .   S
O203       C208 1.250       .   A
O204      Cu206 1.951       .   S
O204       C207 1.250       .   A
Cu205     Cu206 2.630       .   S
C207       C471 1.734       .   S
C208       C688 1.734       .   S
C209       C708 1.734       .   S
C210       C698 1.734       .   S
O211      Cu219 1.951       .   S
O211       C221 1.250       .   A
O212      Cu219 1.951       .   S
O212       C222 1.250       .   A
O213      Cu219 1.951       .   S
O213       C223 1.250       .   A
O214      Cu219 1.951       .   S
O214       C224 1.250       .   A
O215      Cu220 1.951       .   S
O215       C224 1.250       .   A
O216      Cu220 1.951       .   S
O216       C223 1.251       .   A
O217      Cu220 1.951       .   S
O217       C222 1.250       .   A
O218      Cu220 1.951       .   S
O218       C221 1.250       .   A
Cu219     Cu220 2.630       .   S
C221       C681 1.734       .   S
C222       C701 1.734   1_554   S
C223       C408 1.734   1_554   S
C224       C721 1.734       .   S
O225      Cu233 1.951       .   S
O225       C235 1.250       .   A
O226      Cu233 1.951       .   S
O226       C236 1.250       .   A
O227      Cu233 1.951       .   S
O227       C237 1.250       .   A
O228      Cu233 1.951       .   S
O228       C238 1.250       .   A
O229      Cu234 1.951       .   S
O229       C238 1.250       .   A
O230      Cu234 1.951       .   S
O230       C237 1.251       .   A
O231      Cu234 1.951       .   S
O231       C236 1.250       .   A
O232      Cu234 1.951       .   S
O232       C235 1.250       .   A
Cu233     Cu234 2.630       .   S
C235       C591 1.734       .   S
C236       C738 1.734       .   S
C237       C731 1.734       .   S
C238       C718 1.734       .   S
O239      Cu247 1.951       .   S
O239       C249 1.250       .   A
O240      Cu247 1.951       .   S
O240       C250 1.250       .   A
O241      Cu247 1.951       .   S
O241       C251 1.250       .   A
O242      Cu247 1.951       .   S
O242       C252 1.250       .   A
O243      Cu248 1.951       .   S
O243       C252 1.250       .   A
O244      Cu248 1.951       .   S
O244       C251 1.251       .   A
O245      Cu248 1.951       .   S
O245       C250 1.250       .   A
O246      Cu248 1.951       .   S
O246       C249 1.250       .   A
Cu247     Cu248 2.630       .   S
C249       C521 1.734   1_554   S
C250       C741 1.734       .   S
C251       C748 1.734       .   S
C252       C691 1.734   1_554   S
O253      Cu261 1.951       .   S
O253       C263 1.250       .   A
O254      Cu261 1.951       .   S
O254       C264 1.250       .   A
O255      Cu261 1.951       .   S
O255       C265 1.250       .   A
O256      Cu261 1.951       .   S
O256       C266 1.250       .   A
O257      Cu262 1.951       .   S
O257       C266 1.250       .   A
O258      Cu262 1.951       .   S
O258       C265 1.251       .   A
O259      Cu262 1.951       .   S
O259       C264 1.250       .   A
O260      Cu262 1.951       .   S
O260       C263 1.250       .   A
Cu261     Cu262 2.630       .   S
C263       C751 1.734       .   S
C264       C638 1.734       .   S
C265       C551 1.734       .   S
C266       C758 1.734       .   S
O267      Cu275 1.951       .   S
O267       C277 1.250       .   A
O268      Cu275 1.951       .   S
O268       C278 1.250       .   A
O269      Cu275 1.951       .   S
O269       C279 1.250       .   A
O270      Cu275 1.951       .   S
O270       C280 1.250       .   A
O271      Cu276 1.951       .   S
O271       C280 1.250       .   A
O272      Cu276 1.951       .   S
O272       C279 1.251       .   A
O273      Cu276 1.951       .   S
O273       C278 1.250       .   A
O274      Cu276 1.951       .   S
O274       C277 1.250       .   A
Cu275     Cu276 2.630       .   S
C277       C341 1.734   1_455   S
C278       C768 1.734       .   S
C279       C711 1.734       .   S
C280       C778 1.734       .   S
O281      Cu289 1.951       .   S
O281       C291 1.250       .   A
O282      Cu289 1.951       .   S
O282       C292 1.250       .   A
O283      Cu289 1.951       .   S
O283       C293 1.250       .   A
O284      Cu289 1.951       .   S
O284       C294 1.250       .   A
O285      Cu290 1.951       .   S
O285       C294 1.250       .   A
O286      Cu290 1.951       .   S
O286       C293 1.251       .   A
O287      Cu290 1.951       .   S
O287       C292 1.250       .   A
O288      Cu290 1.951       .   S
O288       C291 1.250       .   A
Cu289     Cu290 2.630       .   S
C291       C658 1.734       .   S
C292       C781 1.734   1_655   S
C293       C441 1.734       .   S
C294       C788 1.734       .   S
O295      Cu303 1.951       .   S
O295       C305 1.250       .   A
O296      Cu303 1.951       .   S
O296       C306 1.250       .   A
O297      Cu303 1.951       .   S
O297       C307 1.250       .   A
O298      Cu303 1.951       .   S
O298       C308 1.250       .   A
O299      Cu304 1.951       .   S
O299       C308 1.250       .   A
O300      Cu304 1.951       .   S
O300       C307 1.251       .   A
O301      Cu304 1.951       .   S
O301       C306 1.250       .   A
O302      Cu304 1.951       .   S
O302       C305 1.250       .   A
Cu303     Cu304 2.630       .   S
C305       C798 1.734       .   S
C306       C771 1.734       .   S
C307       C631 1.734   1_545   S
C308       C808 1.734       .   S
O309      Cu317 1.951       .   S
O309       C319 1.250       .   A
O310      Cu317 1.951       .   S
O310       C320 1.250       .   A
O311      Cu317 1.951       .   S
O311       C321 1.250       .   A
O312      Cu317 1.951       .   S
O312       C322 1.250       .   A
O313      Cu318 1.951       .   S
O313       C322 1.250       .   A
O314      Cu318 1.951       .   S
O314       C321 1.251       .   A
O315      Cu318 1.951       .   S
O315       C320 1.250       .   A
O316      Cu318 1.951       .   S
O316       C319 1.250       .   A
Cu317     Cu318 2.630       .   S
C319       C801 1.734       .   S
C320       C671 1.734   1_545   S
C321       C611 1.734   1_545   S
C322       C761 1.734       .   S
O323      Cu331 1.951       .   S
O323       C333 1.250       .   A
O324      Cu331 1.951       .   S
O324       C334 1.250       .   A
O325      Cu331 1.951       .   S
O325       C335 1.250       .   A
O326      Cu331 1.951       .   S
O326       C336 1.250       .   A
O327      Cu332 1.951       .   S
O327       C336 1.250       .   A
O328      Cu332 1.951       .   S
O328       C335 1.251       .   A
O329      Cu332 1.951       .   S
O329       C334 1.250       .   A
O330      Cu332 1.951       .   S
O330       C333 1.250       .   A
Cu331     Cu332 2.630       .   S
C333       C571 1.734   1_455   S
C334       C811 1.734       .   S
C335       C728 1.734       .   S
C336       C791 1.734   1_455   S
C807       C808 1.540       .   A
C807       C812 1.540       .   A
C807       H813 1.140       .   S
C808       C809 1.540       .   A
C809       C810 1.540       .   A
C809       H814 1.140       .   S
C810       C811 1.540       .   A
C810       H815 1.140       .   S
C811       C812 1.540       .   A
C812       H816 1.140       .   S
C797       C798 1.540       .   A
C797       C802 1.540       .   A
C797       H803 1.140       .   S
C798       C799 1.540       .   A
C799       C800 1.540       .   A
C799       H804 1.140       .   S
C800       C801 1.540       .   A
C800       H805 1.140       .   S
C801       C802 1.540       .   A
C802       H806 1.140       .   S
C787       C788 1.540       .   A
C787       C792 1.540       .   A
C787       H793 1.140       .   S
C788       C789 1.540       .   A
C789       C790 1.540       .   A
C789       H794 1.140       .   S
C790       C791 1.540       .   A
C790       H795 1.140       .   S
C791       C792 1.540       .   A
C792       H796 1.140       .   S
C777       C778 1.540       .   A
C777       C782 1.540       .   A
C777       H783 1.140       .   S
C778       C779 1.540       .   A
C779       C780 1.540       .   A
C779       H784 1.140       .   S
C780       C781 1.540       .   A
C780       H785 1.140       .   S
C781       C782 1.540       .   A
C782       H786 1.140       .   S
C767       C768 1.540       .   A
C767       C772 1.540       .   A
C767       H773 1.140       .   S
C768       C769 1.540       .   A
C769       C770 1.540       .   A
C769       H774 1.140       .   S
C770       C771 1.540       .   A
C770       H775 1.140       .   S
C771       C772 1.540       .   A
C772       H776 1.140       .   S
C757       C758 1.540       .   A
C757       C762 1.540       .   A
C757       H763 1.140       .   S
C758       C759 1.540       .   A
C759       C760 1.540       .   A
C759       H764 1.140       .   S
C760       C761 1.540       .   A
C760       H765 1.140       .   S
C761       C762 1.540       .   A
C762       H766 1.140       .   S
C747       C748 1.540       .   A
C747       C752 1.540       .   A
C747       H753 1.140       .   S
C748       C749 1.540       .   A
C749       C750 1.540       .   A
C749       H754 1.140       .   S
C750       C751 1.540       .   A
C750       H755 1.140       .   S
C751       C752 1.540       .   A
C752       H756 1.140       .   S
C737       C738 1.540       .   A
C737       C742 1.540       .   A
C737       H743 1.140       .   S
C738       C739 1.540       .   A
C739       C740 1.540       .   A
C739       H744 1.140       .   S
C740       C741 1.540       .   A
C740       H745 1.140       .   S
C741       C742 1.540       .   A
C742       H746 1.140       .   S
C727       C728 1.540       .   A
C727       C732 1.540       .   A
C727       H733 1.140       .   S
C728       C729 1.540       .   A
C729       C730 1.540       .   A
C729       H734 1.140       .   S
C730       C731 1.540       .   A
C730       H735 1.140       .   S
C731       C732 1.540       .   A
C732       H736 1.140       .   S
C717       C718 1.540       .   A
C717       C722 1.540       .   A
C717       H723 1.140       .   S
C718       C719 1.540       .   A
C719       C720 1.540       .   A
C719       H724 1.140       .   S
C720       C721 1.540       .   A
C720       H725 1.140       .   S
C721       C722 1.540       .   A
C722       H726 1.140       .   S
C707       C708 1.540       .   A
C707       C712 1.540       .   A
C707       H713 1.140       .   S
C708       C709 1.540       .   A
C709       C710 1.540       .   A
C709       H714 1.140       .   S
C710       C711 1.540       .   A
C710       H715 1.140       .   S
C711       C712 1.540       .   A
C712       H716 1.140       .   S
C697       C698 1.540       .   A
C697       C702 1.540       .   A
C697       H703 1.140       .   S
C698       C699 1.540       .   A
C699       C700 1.540       .   A
C699       H704 1.140       .   S
C700       C701 1.540       .   A
C700       H705 1.140       .   S
C701       C702 1.540       .   A
C702       H706 1.140       .   S
C687       C688 1.540       .   A
C687       C692 1.540       .   A
C687       H693 1.140       .   S
C688       C689 1.540       .   A
C689       C690 1.540       .   A
C689       H694 1.140       .   S
C690       C691 1.540       .   A
C690       H695 1.140       .   S
C691       C692 1.540       .   A
C692       H696 1.140       .   S
C677       C678 1.540       .   A
C677       C682 1.540       .   A
C677       H683 1.140       .   S
C678       C679 1.540       .   A
C679       C680 1.540       .   A
C679       H684 1.140       .   S
C680       C681 1.540       .   A
C680       H685 1.140       .   S
C681       C682 1.540       .   A
C682       H686 1.140       .   S
C667       C668 1.540       .   A
C667       C672 1.540       .   A
C667       H673 1.140       .   S
C668       C669 1.540       .   A
C669       C670 1.540       .   A
C669       H674 1.140       .   S
C670       C671 1.540       .   A
C670       H675 1.140       .   S
C671       C672 1.540       .   A
C672       H676 1.140       .   S
C657       C658 1.540       .   A
C657       C662 1.540       .   A
C657       H663 1.140       .   S
C658       C659 1.540       .   A
C659       C660 1.540       .   A
C659       H664 1.140       .   S
C660       C661 1.540       .   A
C660       H665 1.140       .   S
C661       C662 1.540       .   A
C662       H666 1.140       .   S
C647       C648 1.540       .   A
C647       C652 1.540       .   A
C647       H653 1.140       .   S
C648       C649 1.540       .   A
C649       C650 1.540       .   A
C649       H654 1.140       .   S
C650       C651 1.540       .   A
C650       H655 1.140       .   S
C651       C652 1.540       .   A
C652       H656 1.140       .   S
C637       C638 1.540       .   A
C637       C642 1.540       .   A
C637       H643 1.140       .   S
C638       C639 1.540       .   A
C639       C640 1.540       .   A
C639       H644 1.140       .   S
C640       C641 1.540       .   A
C640       H645 1.140       .   S
C641       C642 1.540       .   A
C642       H646 1.140       .   S
C627       C628 1.540       .   A
C627       C632 1.540       .   A
C627       H633 1.140       .   S
C628       C629 1.540       .   A
C629       C630 1.540       .   A
C629       H634 1.140       .   S
C630       C631 1.540       .   A
C630       H635 1.140       .   S
C631       C632 1.540       .   A
C632       H636 1.140       .   S
C617       C618 1.540       .   A
C617       C622 1.540       .   A
C617       H623 1.140       .   S
C618       C619 1.540       .   A
C619       C620 1.540       .   A
C619       H624 1.140       .   S
C620       C621 1.540       .   A
C620       H625 1.140       .   S
C621       C622 1.540       .   A
C622       H626 1.140       .   S
C607       C608 1.540       .   A
C607       C612 1.540       .   A
C607       H613 1.140       .   S
C608       C609 1.540       .   A
C609       C610 1.540       .   A
C609       H614 1.140       .   S
C610       C611 1.540       .   A
C610       H615 1.140       .   S
C611       C612 1.540       .   A
C612       H616 1.140       .   S
C597       C598 1.540       .   A
C597       C602 1.540       .   A
C597       H603 1.140       .   S
C598       C599 1.540       .   A
C599       C600 1.540       .   A
C599       H604 1.140       .   S
C600       C601 1.540       .   A
C600       H605 1.140       .   S
C601       C602 1.540       .   A
C602       H606 1.140       .   S
C587       C588 1.540       .   A
C587       C592 1.540       .   A
C587       H593 1.140       .   S
C588       C589 1.540       .   A
C589       C590 1.540       .   A
C589       H594 1.140       .   S
C590       C591 1.540       .   A
C590       H595 1.140       .   S
C591       C592 1.540       .   A
C592       H596 1.140       .   S
C577       C578 1.540       .   A
C577       C582 1.540       .   A
C577       H583 1.140       .   S
C578       C579 1.540       .   A
C579       C580 1.540       .   A
C579       H584 1.140       .   S
C580       C581 1.540       .   A
C580       H585 1.140       .   S
C581       C582 1.540       .   A
C582       H586 1.140       .   S
C567       C568 1.540       .   A
C567       C572 1.540       .   A
C567       H573 1.140       .   S
C568       C569 1.540       .   A
C569       C570 1.540       .   A
C569       H574 1.140       .   S
C570       C571 1.540       .   A
C570       H575 1.140       .   S
C571       C572 1.540       .   A
C572       H576 1.140       .   S
C557       C558 1.540       .   A
C557       C562 1.540       .   A
C557       H563 1.140       .   S
C558       C559 1.540       .   A
C559       C560 1.540       .   A
C559       H564 1.140       .   S
C560       C561 1.540       .   A
C560       H565 1.140       .   S
C561       C562 1.540       .   A
C562       H566 1.140       .   S
C547       C548 1.540       .   A
C547       C552 1.540       .   A
C547       H553 1.140       .   S
C548       C549 1.540       .   A
C549       C550 1.540       .   A
C549       H554 1.140       .   S
C550       C551 1.540       .   A
C550       H555 1.140       .   S
C551       C552 1.540       .   A
C552       H556 1.140       .   S
C537       C538 1.540       .   A
C537       C542 1.540       .   A
C537       H543 1.140       .   S
C538       C539 1.540       .   A
C539       C540 1.540       .   A
C539       H544 1.140       .   S
C540       C541 1.540       .   A
C540       H545 1.140       .   S
C541       C542 1.540       .   A
C542       H546 1.140       .   S
C527       C528 1.540       .   A
C527       C532 1.540       .   A
C527       H533 1.140       .   S
C528       C529 1.540       .   A
C529       C530 1.540       .   A
C529       H534 1.140       .   S
C530       C531 1.540       .   A
C530       H535 1.140       .   S
C531       C532 1.540       .   A
C532       H536 1.140       .   S
C517       C518 1.540       .   A
C517       C522 1.540       .   A
C517       H523 1.140       .   S
C518       C519 1.540       .   A
C519       C520 1.540       .   A
C519       H524 1.140       .   S
C520       C521 1.540       .   A
C520       H525 1.140       .   S
C521       C522 1.540       .   A
C522       H526 1.140       .   S
C507       C508 1.540       .   A
C507       C512 1.540       .   A
C507       H513 1.140       .   S
C508       C509 1.540       .   A
C509       C510 1.540       .   A
C509       H514 1.140       .   S
C510       C511 1.540       .   A
C510       H515 1.140       .   S
C511       C512 1.540       .   A
C512       H516 1.140       .   S
C497       C498 1.540       .   A
C497       C502 1.540       .   A
C497       H503 1.140       .   S
C498       C499 1.540       .   A
C499       C500 1.540       .   A
C499       H504 1.140       .   S
C500       C501 1.540       .   A
C500       H505 1.140       .   S
C501       C502 1.540       .   A
C502       H506 1.140       .   S
C487       C488 1.540       .   A
C487       C492 1.540       .   A
C487       H493 1.140       .   S
C488       C489 1.540       .   A
C489       C490 1.540       .   A
C489       H494 1.140       .   S
C490       C491 1.540       .   A
C490       H495 1.140       .   S
C491       C492 1.540       .   A
C492       H496 1.140       .   S
C477       C478 1.540       .   A
C477       C482 1.540       .   A
C477       H483 1.140       .   S
C478       C479 1.540       .   A
C479       C480 1.540       .   A
C479       H484 1.140       .   S
C480       C481 1.540       .   A
C480       H485 1.140       .   S
C481       C482 1.540       .   A
C482       H486 1.140       .   S
C467       C468 1.540       .   A
C467       C472 1.540       .   A
C467       H473 1.140       .   S
C468       C469 1.540       .   A
C469       C470 1.540       .   A
C469       H474 1.140       .   S
C470       C471 1.540       .   A
C470       H475 1.140       .   S
C471       C472 1.540       .   A
C472       H476 1.140       .   S
C457       C458 1.540       .   A
C457       C462 1.540       .   A
C457       H463 1.140       .   S
C458       C459 1.540       .   A
C459       C460 1.540       .   A
C459       H464 1.140       .   S
C460       C461 1.540       .   A
C460       H465 1.140       .   S
C461       C462 1.540       .   A
C462       H466 1.140       .   S
C447       C448 1.540       .   A
C447       C452 1.540       .   A
C447       H453 1.140       .   S
C448       C449 1.540       .   A
C449       C450 1.540       .   A
C449       H454 1.140       .   S
C450       C451 1.540       .   A
C450       H455 1.140       .   S
C451       C452 1.540       .   A
C452       H456 1.140       .   S
C437       C438 1.540       .   A
C437       C442 1.540       .   A
C437       H443 1.140       .   S
C438       C439 1.540       .   A
C439       C440 1.540       .   A
C439       H444 1.140       .   S
C440       C441 1.540       .   A
C440       H445 1.140       .   S
C441       C442 1.540       .   A
C442       H446 1.140       .   S
C427       C428 1.540       .   A
C427       C432 1.540       .   A
C427       H433 1.140       .   S
C428       C429 1.540       .   A
C429       C430 1.540       .   A
C429       H434 1.140       .   S
C430       C431 1.540       .   A
C430       H435 1.140       .   S
C431       C432 1.540       .   A
C432       H436 1.140       .   S
C417       C418 1.540       .   A
C417       C422 1.540       .   A
C417       H423 1.140       .   S
C418       C419 1.540       .   A
C419       C420 1.540       .   A
C419       H424 1.140       .   S
C420       C421 1.540       .   A
C420       H425 1.140       .   S
C421       C422 1.540       .   A
C422       H426 1.140       .   S
C407       C408 1.540       .   A
C407       C412 1.540       .   A
C407       H413 1.140       .   S
C408       C409 1.540       .   A
C409       C410 1.540       .   A
C409       H414 1.140       .   S
C410       C411 1.540       .   A
C410       H415 1.140       .   S
C411       C412 1.540       .   A
C412       H416 1.140       .   S
C397       C398 1.540       .   A
C397       C402 1.540       .   A
C397       H403 1.140       .   S
C398       C399 1.540       .   A
C399       C400 1.540       .   A
C399       H404 1.140       .   S
C400       C401 1.540       .   A
C400       H405 1.140       .   S
C401       C402 1.540       .   A
C402       H406 1.140       .   S
C387       C388 1.540       .   A
C387       C392 1.540       .   A
C387       H393 1.140       .   S
C388       C389 1.540       .   A
C389       C390 1.540       .   A
C389       H394 1.140       .   S
C390       C391 1.540       .   A
C390       H395 1.140       .   S
C391       C392 1.540       .   A
C392       H396 1.140       .   S
C377       C378 1.540       .   A
C377       C382 1.540       .   A
C377       H383 1.140       .   S
C378       C379 1.540       .   A
C379       C380 1.540       .   A
C379       H384 1.140       .   S
C380       C381 1.540       .   A
C380       H385 1.140       .   S
C381       C382 1.540       .   A
C382       H386 1.140       .   S
C367       C368 1.540       .   A
C367       C372 1.540       .   A
C367       H373 1.140       .   S
C368       C369 1.540       .   A
C369       C370 1.540       .   A
C369       H374 1.140       .   S
C370       C371 1.540       .   A
C370       H375 1.140       .   S
C371       C372 1.540       .   A
C372       H376 1.140       .   S
C357       C358 1.540       .   A
C357       C362 1.540       .   A
C357       H363 1.140       .   S
C358       C359 1.540       .   A
C359       C360 1.540       .   A
C359       H364 1.140       .   S
C360       C361 1.540       .   A
C360       H365 1.140       .   S
C361       C362 1.540       .   A
C362       H366 1.140       .   S
C347       C348 1.540       .   A
C347       C352 1.540       .   A
C347       H353 1.140       .   S
C348       C349 1.540       .   A
C349       C350 1.540       .   A
C349       H354 1.140       .   S
C350       C351 1.540       .   A
C350       H355 1.140       .   S
C351       C352 1.540       .   A
C352       H356 1.140       .   S
C337       C338 1.540       .   A
C337       C342 1.540       .   A
C337       H343 1.140       .   S
C338       C339 1.540       .   A
C339       C340 1.540       .   A
C339       H344 1.140       .   S
C340       C341 1.540       .   A
C340       H345 1.140       .   S
C341       C342 1.540       .   A
C342       H346 1.140       .   S
