data_sst_v1-4c_Cu_1_Ch_1-1B_4H_Ch
_audit_creation_date              2024-08-05
_audit_creation_method            'tobacco_3.0'
_symmetry_space_group_name_H-M    'P1'
_symmetry_Int_Tables_number       1
_symmetry_cell_setting            triclinic
loop_
_symmetry_equiv_pos_as_xyz
  x,y,z
_cell_length_a                    44.738903539501806
_cell_length_b                    44.73892507748027
_cell_length_c                    44.738946615808175
_cell_angle_alpha                 89.99999078190542
_cell_angle_beta                  89.99999345633209
_cell_angle_gamma                 89.99999483538875
loop_
_atom_site_label
_atom_site_type_symbol
_atom_site_fract_x
_atom_site_fract_y
_atom_site_fract_z
_atom_site_charge
O1         O    0.1249999512    0.0816322985    0.3998532137         -1.3557
O2         O    0.1249992440    0.1683679045    0.3998522152         -1.3655
O3         O    0.0816308569    0.1250037041    0.3998511862         -1.2517
O4         O    0.1683714985    0.1249996607    0.3998542480         -1.3358
O5         O    0.1683723033    0.1249994578    0.3501488191         -1.3313
O6         O    0.0816348230    0.1250003414    0.3501458385         -1.2439
O7         O    0.1250000488    0.1683677015    0.3501467863         -1.3689
O8         O    0.1250007560    0.0816320955    0.3501477848         -1.3567
Cu9       Cu    0.1249991439    0.1250024826    0.4043886310          1.0456
Cu10      Cu    0.1250008561    0.1249975174    0.3456113690          1.0433
C11        C    0.1249999200    0.0688432947    0.3749999915          0.3063
C12        C    0.1250000800    0.1811567053    0.3750000085          0.2977
C13        C    0.0688452239    0.1249998462    0.3750000292          0.2191
C14        C    0.1811547761    0.1250001538    0.3749999708          0.2819
O15        O    0.1249993241    0.9183660901    0.3998540019         -1.3557
O16        O    0.1250001311    0.8316304841    0.3998530869         -1.3655
O17        O    0.1683684683    0.8749947344    0.3998519227         -1.2517
O18        O    0.0816278267    0.8749986780    0.3998551713         -1.3358
O19        O    0.0816269263    0.8749988491    0.3501497424         -1.3313
O20        O    0.1683644065    0.8749980652    0.3501465751         -1.2439
O21        O    0.1249992306    0.8316306553    0.3501476579         -1.3689
O22        O    0.1249984236    0.9183662612    0.3501485730         -1.3567
Cu23      Cu    0.1250001900    0.8749959089    0.4043894609          1.0456
Cu24      Cu    0.1249983647    0.8750008364    0.3456121990          1.0433
C25        C    0.1249992927    0.9311550780    0.3750007674          0.3063
C26        C    0.1249992620    0.8188416674    0.3750008925          0.2977
C27        C    0.1811540535    0.8749985910    0.3750007382          0.2191
C28        C    0.0688445013    0.8749981543    0.3750009217          0.2819
O29        O    0.9183679402    0.1249991177    0.3998527936         -1.3557
O30        O    0.8316322925    0.1249983203    0.3998517351         -1.3655
O31        O    0.8749965666    0.0816299992    0.3998509294         -1.2517
O32        O    0.8750005042    0.1683705990    0.3998536046         -1.3358
O33        O    0.8750007552    0.1683711846    0.3501481757         -1.3313
O34        O    0.8749999773    0.0816337461    0.3501455817         -1.2439
O35        O    0.8316325435    0.1249989059    0.3501463062         -1.3689
O36        O    0.9183681912    0.1249997033    0.3501473647         -1.3567
Cu37      Cu    0.8749977309    0.1249982853    0.4043881809          1.0456
Cu38      Cu    0.8750027528    0.1249997383    0.3456109189          1.0433
C39        C    0.9311569742    0.1249989902    0.3749995802          0.3063
C40        C    0.8188435095    0.1249990334    0.3749995196          0.2977
C41        C    0.8750004641    0.0688442627    0.3749998294          0.2191
C42        C    0.8750000196    0.1811537609    0.3749992705          0.2819
O43        O    0.8750010732    0.9183656038    0.3998550395         -1.3557
O44        O    0.8750017947    0.8316299978    0.3998541820         -1.3655
O45        O    0.9183701746    0.8749942053    0.3998529988         -1.2517
O46        O    0.8316295330    0.8749982344    0.3998562279         -1.3358
O47        O    0.8316286438    0.8749983725    0.3501507990         -1.3313
O48        O    0.9183661240    0.8749975031    0.3501476512         -1.2439
O49        O    0.8750009054    0.8316301359    0.3501487531         -1.3689
O50        O    0.8750001839    0.9183657418    0.3501496105         -1.3567
Cu51      Cu    0.8750018953    0.8749954256    0.4043905273          1.0456
Cu52      Cu    0.8750000832    0.8750003140    0.3456132653          1.0433
C53        C    0.8750010600    0.9311545751    0.3750017964          0.3063
C54        C    0.8750009185    0.8188411645    0.3750019962          0.2977
C55        C    0.9311557654    0.8749980328    0.3750018172          0.2191
C56        C    0.8188462132    0.8749977068    0.3750019754          0.2819
O57        O    0.1498532810    0.3749999784    0.3316332119         -1.3557
O58        O    0.1498523323    0.3749993929    0.4183687761         -1.3655
O59        O    0.1498512699    0.3316309659    0.3750046606         -1.2517
O60        O    0.1498543486    0.4183715657    0.3750004893         -1.3358
O61        O    0.1001488718    0.4183723789    0.3750003126         -1.3313
O62        O    0.1001458744    0.3316349404    0.3750013241         -1.2439
O63        O    0.1001468555    0.3750002061    0.4183685994         -1.3689
O64        O    0.1001478042    0.3750007916    0.3316330352         -1.3567
Cu65      Cu    0.1543887275    0.3749992312    0.3750033728          1.0456
Cu66      Cu    0.0956114089    0.3750009534    0.3749984386          1.0433
C67        C    0.1250000274    0.3749999335    0.3188442274          0.3063
C68        C    0.1250001090    0.3750002511    0.4311575839          0.2977
C69        C    0.1250000865    0.3188453432    0.3750008347          0.2191
C70        C    0.1250000499    0.4311548413    0.3750009767          0.2819
O71        O    0.1001464235    0.3316326282    0.6250000206         -1.3557
O72        O    0.1001470520    0.4183682342    0.6249994446         -1.3655
O73        O    0.1001483731    0.3750041025    0.5816310337         -1.2517
O74        O    0.1001450972    0.3749999218    0.6683715917         -1.3358
O75        O    0.1498505740    0.3749999184    0.6683725078         -1.3313
O76        O    0.1498537686    0.3750009394    0.5816351110         -1.2439
O77        O    0.1498525288    0.4183682308    0.6250003607         -1.3689
O78        O    0.1498519003    0.3316326249    0.6250009367         -1.3567
Cu79      Cu    0.0956108169    0.3750027941    0.6249992687          1.0456
Cu80      Cu    0.1543881354    0.3749980650    0.6250011125          1.0433
C81        C    0.1249997243    0.3188437242    0.6250000257          0.3063
C82        C    0.1249992280    0.4311571348    0.6250003556          0.2977
C83        C    0.1249995856    0.3750003647    0.5688454686          0.2191
C84        C    0.1249993667    0.3750004943    0.6811549127          0.2819
O85        O    0.1498528704    0.6249985564    0.4183683481         -1.3557
O86        O    0.1498522807    0.6249991195    0.3316327839         -1.3655
O87        O    0.1498509561    0.6683675577    0.3749968883         -1.2517
O88        O    0.1498542002    0.5816269579    0.3750010820         -1.3358
O89        O    0.1001487234    0.5816260589    0.3750010643         -1.3313
O90        O    0.1001455606    0.6683634974    0.3750000303         -1.2439
O91        O    0.1001468039    0.6249982204    0.3316327663         -1.3689
O92        O    0.1001473936    0.6249976573    0.4183683305         -1.3567
Cu93      Cu    0.1543884964    0.6249993002    0.3749982051          1.0456
Cu94      Cu    0.0956111778    0.6249974766    0.3750029093          1.0433
C95        C    0.1249995639    0.6249985617    0.4311572355          0.3063
C96        C    0.1250001104    0.6249982151    0.3188438790          0.2977
C97        C    0.1249997483    0.6811531375    0.3750006137          0.2191
C98        C    0.1249999259    0.5688436394    0.3750005008          0.2819
O99        O    0.1498511552    0.6249993324    0.5816328198         -1.3557
O100       O    0.1498501074    0.6249988106    0.6683683840         -1.3655
O101       O    0.1498491173    0.5816303517    0.6250043003         -1.2517
O102       O    0.1498521505    0.6683709515    0.6250000653         -1.3358
O103       O    0.1001466737    0.6683717387    0.6249998318         -1.3313
O104       O    0.1001437219    0.5816343001    0.6250009070         -1.2439
O105       O    0.1001446306    0.6249995977    0.6683681504         -1.3689
O106       O    0.1001456784    0.6250001196    0.5816325862         -1.3567
Cu107     Cu    0.1543865522    0.6249986194    0.6250029858          1.0456
Cu108     Cu    0.0956092336    0.6250003107    0.6249979844          1.0433
C109       C    0.1249979163    0.6249992651    0.5688438068          0.3063
C110       C    0.1249978695    0.6249996651    0.6811571633          0.2977
C111       C    0.1249979407    0.5688447160    0.6250004554          0.2191
C112       C    0.1249978451    0.6811542141    0.6250005148          0.2819
O113       O    0.6683659376    0.1498526229    0.3749997964         -1.3557
O114       O    0.5816302899    0.1498518623    0.3750004555         -1.3655
O115       O    0.6249944860    0.1498507146    0.4183688249         -1.2517
O116       O    0.6249985796    0.1498537759    0.3316282668         -1.3358
O117       O    0.6249986587    0.1001483231    0.3316274760         -1.3313
O118       O    0.6249977247    0.1001453430    0.4183648728         -1.2439
O119       O    0.5816303689    0.1001464095    0.3749996647         -1.3689
O120       O    0.6683660166    0.1001471700    0.3749990056         -1.3567
Cu121     Cu    0.6249957439    0.1543881613    0.3750005783          1.0456
Cu122     Cu    0.6250005626    0.0956108711    0.3749988827          1.0433
C123       C    0.6811548856    0.1249993536    0.3749998417          0.3063
C124       C    0.5688414209    0.1249996788    0.3749996194          0.2977
C125       C    0.6249982745    0.1249995457    0.4311544525          0.2191
C126       C    0.6249980320    0.1249994867    0.3188450085          0.2819
O127       O    0.6249982488    0.1001450176    0.5816331197         -1.3557
O128       O    0.6249975865    0.1001456018    0.6683686839         -1.3655
O129       O    0.5816291770    0.1001469133    0.6250045280         -1.2517
O130       O    0.6683698185    0.1001437008    0.6250004375         -1.3358
O131       O    0.6683706995    0.1498491536    0.6250004560         -1.3313
O132       O    0.5816332192    0.1498522849    0.6250013867         -1.2439
O133       O    0.6249984675    0.1498510547    0.6683687024         -1.3689
O134       O    0.6249991298    0.1498504704    0.5816331382         -1.3567
Cu135     Cu    0.6249974570    0.0956093910    0.6250032627          1.0456
Cu136     Cu    0.6249992593    0.1543866813    0.6249985594          1.0433
C137       C    0.6249982490    0.1249983129    0.5688442328          0.3063
C138       C    0.6249984672    0.1249977594    0.6811575893          0.2977
C139       C    0.5688435821    0.1249981045    0.6250007878          0.2191
C140       C    0.6811531342    0.1249979677    0.6250010343          0.2819
O141       O    0.3749978944    0.1001471630    0.3316316582         -1.3557
O142       O    0.3749974714    0.1001483037    0.4183672224         -1.3655
O143       O    0.3316289422    0.1001493261    0.3750031860         -1.2517
O144       O    0.4183695838    0.1001461353    0.3749988563         -1.3358
O145       O    0.4183704523    0.1498515881    0.3749985559         -1.3313
O146       O    0.3316329720    0.1498546977    0.3749997259         -1.2439
O147       O    0.3749983399    0.1498537565    0.4183669219         -1.3689
O148       O    0.3749987629    0.1498526158    0.3316313577         -1.3567
Cu149     Cu    0.3749972234    0.0956118146    0.3750018303          1.0456
Cu150     Cu    0.3749990110    0.1543891049    0.3749967498          1.0433
C151       C    0.3749978532    0.1250003762    0.3188426118          0.3063
C152       C    0.3749983812    0.1250005433    0.4311559683          0.2977
C153       C    0.3188433411    0.1250005141    0.3749993217          0.2191
C154       C    0.4311528933    0.1250004054    0.3749992584          0.2819
O155       O    0.3749990398    0.1001460740    0.6683685113         -1.3557
O156       O    0.3749997983    0.1001474011    0.5816329471         -1.3655
O157       O    0.4183681597    0.1001481673    0.6249971511         -1.2517
O158       O    0.3316275182    0.1001453026    0.6250011454         -1.3358
O159       O    0.3316268275    0.1498507554    0.6250015366         -1.3313
O160       O    0.4183643078    0.1498535389    0.6250007021         -1.2439
O161       O    0.3749991076    0.1498528540    0.5816333383         -1.3689
O162       O    0.3749983492    0.1498515269    0.6683689025         -1.3567
Cu163     Cu    0.3749998623    0.0956108189    0.6249983309          1.0456
Cu164     Cu    0.3749982851    0.1543881091    0.6250035187          1.0433
C165       C    0.3749991206    0.1249992598    0.6811576030          0.3063
C166       C    0.3749990269    0.1249996682    0.5688442465          0.2977
C167       C    0.4311538498    0.1249993072    0.6250011103          0.2191
C168       C    0.3188442976    0.1249996208    0.6250007393          0.2819
O169       O    0.8998535598    0.6249967579    0.4183680485         -1.3557
O170       O    0.8998523357    0.6249976720    0.3316324843         -1.3655
O171       O    0.8998515099    0.6683659348    0.3749967642         -1.2517
O172       O    0.8998543909    0.5816253350    0.3750006068         -1.3358
O173       O    0.8501489141    0.5816246440    0.3750009527         -1.3313
O174       O    0.8501461145    0.6683620826    0.3750002698         -1.2439
O175       O    0.8501468589    0.6249969811    0.3316328302         -1.3689
O176       O    0.8501480831    0.6249960670    0.4183683944         -1.3567
Cu177     Cu    0.9043888687    0.6249976583    0.3749978723          1.0456
Cu178     Cu    0.8456115501    0.6249960807    0.3750030065          1.0433
C179       C    0.8750003469    0.6249968156    0.4311571176          0.3063
C180       C    0.8750000719    0.6249969235    0.3188437611          0.2977
C181       C    0.8750003557    0.6811516186    0.3750007231          0.2191
C182       C    0.8750000631    0.5688421205    0.3750001557          0.2819
O183       O    0.8501471575    0.5816295039    0.6250012843         -1.3557
O184       O    0.8501486632    0.6683651098    0.6250004771         -1.3655
O185       O    0.8501495066    0.6250008625    0.5816321818         -1.2517
O186       O    0.8501463088    0.6249969130    0.6683727399         -1.3358
O187       O    0.8998517856    0.6249964070    0.6683736111         -1.3313
O188       O    0.8998549020    0.6249971967    0.5816362143         -1.2439
O189       O    0.8998541399    0.6683646038    0.6250013484         -1.3689
O190       O    0.8998526343    0.5816289978    0.6250021556         -1.3567
Cu191     Cu    0.8456119895    0.6249997156    0.6250004210          1.0456
Cu192     Cu    0.9043893080    0.6249943920    0.6250022118          1.0433
C193       C    0.8750003289    0.5688403485    0.6250013011          0.3063
C194       C    0.8750009685    0.6811537591    0.6250013316          0.2977
C195       C    0.8750007075    0.6249968393    0.5688465943          0.2191
C196       C    0.8750005899    0.6249972683    0.6811560384          0.2819
O197       O    0.8998530828    0.3749977156    0.3316318196         -1.3557
O198       O    0.8998517668    0.3749970110    0.4183673838         -1.3655
O199       O    0.8998508768    0.3316286435    0.3750032087         -1.2517
O200       O    0.8998539781    0.4183692433    0.3749991566         -1.3358
O201       O    0.8501485013    0.4183700695    0.3749987694         -1.3313
O202       O    0.8501454813    0.3316326310    0.3749996617         -1.2439
O203       O    0.8501462901    0.3749978372    0.4183669966         -1.3689
O204       O    0.8501476060    0.3749985418    0.3316314324         -1.3567
Cu205     Cu    0.9043883457    0.3749969077    0.3750019996          1.0456
Cu206     Cu    0.8456110272    0.3749986451    0.3749968166          1.0433
C207       C    0.8749998834    0.3749976948    0.3188427299          0.3063
C208       C    0.8749994894    0.3749978580    0.4311560864          0.2977
C209       C    0.8749996901    0.3188430274    0.3749992600          0.2191
C210       C    0.8749996828    0.4311525255    0.3749995562          0.2819
O211       O    0.8501448394    0.3749972959    0.5816335523         -1.3557
O212       O    0.8501457413    0.3749978353    0.6683691166         -1.3655
O213       O    0.8501469476    0.4183662854    0.6250050101         -1.2517
O214       O    0.8501436278    0.3316256856    0.6250008207         -1.3358
O215       O    0.8998491046    0.3316247342    0.6250006595         -1.3313
O216       O    0.8998523431    0.4183621727    0.6250016891         -1.2439
O217       O    0.8998512180    0.3749968839    0.6683689553         -1.3689
O218       O    0.8998503162    0.3749963445    0.5816333911         -1.3567
Cu219     Cu    0.8456093695    0.3749980327    0.6250037117          1.0456
Cu220     Cu    0.9043866880    0.3749961471    0.6249987959          1.0433
C221       C    0.8749980999    0.3749972785    0.5688445756          0.3063
C222       C    0.8749979576    0.3749969013    0.6811579321          0.2977
C223       C    0.8749981666    0.4311518389    0.6250011946          0.2191
C224       C    0.8749978909    0.3188423408    0.6250013130          0.2819
O225       O    0.3316314695    0.8998531462    0.3750010070         -1.3557
O226       O    0.4183671173    0.8998519864    0.3750003665         -1.3655
O227       O    0.3750029305    0.8998510571    0.3316319878         -1.2517
O228       O    0.3749988182    0.8998540807    0.4183725459         -1.3358
O229       O    0.3749985193    0.8501486279    0.4183733311         -1.3313
O230       O    0.3749994718    0.8501456856    0.3316359343         -1.2439
O231       O    0.4183668183    0.8501465335    0.3750011517         -1.3689
O232       O    0.3316311706    0.8501476934    0.3750017922         -1.3567
Cu233     Cu    0.3750016833    0.9043884850    0.3750002349          1.0456
Cu234     Cu    0.3749966046    0.8456111948    0.3750019239          1.0433
C235       C    0.3188424116    0.8749999358    0.3750009562          0.3063
C236       C    0.4311558763    0.8749997440    0.3750012026          0.2977
C237       C    0.3749990348    0.8749998938    0.3188463573          0.2191
C238       C    0.3749992531    0.8749997859    0.4311558014          0.2819
O239       O    0.4183667617    0.8501447391    0.6249991037         -1.3557
O240       O    0.3316311140    0.8501459612    0.6249984910         -1.3655
O241       O    0.3749952968    0.8501470824    0.5816300984         -1.2517
O242       O    0.3749994171    0.8501436126    0.6683706565         -1.3358
O243       O    0.3749997517    0.8998490654    0.6683716814         -1.3313
O244       O    0.3749987912    0.8998524540    0.5816342846         -1.2439
O245       O    0.3316314486    0.8998514141    0.6249995159         -1.3689
O246       O    0.4183670963    0.8998501919    0.6250001286         -1.3567
Cu247     Cu    0.3749965447    0.8456094315    0.6249983236          1.0456
Cu248     Cu    0.3750016656    0.9043867217    0.6250002960          1.0433
C249       C    0.4311558375    0.8749979403    0.6249991686          0.3063
C250       C    0.3188423728    0.8749982128    0.6249994510          0.2977
C251       C    0.3749992091    0.8749983115    0.5688445878          0.2191
C252       C    0.3749990012    0.8749978416    0.6811540318          0.2819
O253       O    0.5816332903    0.8998505801    0.6249994731         -1.3557
O254       O    0.6683689380    0.8998496885    0.6249989672         -1.3655
O255       O    0.6250048185    0.8998485550    0.5816305212         -1.2517
O256       O    0.6250005717    0.8998517189    0.6683710792         -1.3358
O257       O    0.6250004265    0.8501462660    0.6683719448         -1.3313
O258       O    0.6250015135    0.8501431834    0.5816345481         -1.2439
O259       O    0.6683687928    0.8501442356    0.6249998327         -1.3689
O260       O    0.5816331451    0.8501451273    0.6250003387         -1.3567
Cu261     Cu    0.6250034900    0.9043860530    0.6249987609          1.0456
Cu262     Cu    0.6249985931    0.8456087628    0.6250005449          1.0433
C263       C    0.5688443092    0.8749973302    0.6249994426          0.3063
C264       C    0.6811577739    0.8749974856    0.6249998632          0.2977
C265       C    0.6250010195    0.8749973710    0.5688449309          0.2191
C266       C    0.6250010636    0.8749974448    0.6811543749          0.2819
O267       O    0.6683687869    0.8998505802    0.3750016343         -1.3557
O268       O    0.5816331392    0.8998499103    0.3750022871         -1.3655
O269       O    0.6249973322    0.8998486629    0.4183706596         -1.2517
O270       O    0.6250014321    0.8998518329    0.3316301016         -1.3358
O271       O    0.6250014592    0.8501463800    0.3316292485         -1.3313
O272       O    0.6250005190    0.8501432913    0.4183666453         -1.2439
O273       O    0.5816331663    0.8501444574    0.3750014340         -1.3689
O274       O    0.6683688141    0.8501451274    0.3750007812         -1.3567
Cu275     Cu    0.6249985980    0.9043861640    0.3750024188          1.0456
Cu276     Cu    0.6250033553    0.8456088737    0.3750006495          1.0433
C277       C    0.6811577090    0.8749972976    0.3750016494          0.3063
C278       C    0.5688442443    0.8749977401    0.3750014189          0.2977
C279       C    0.6250010938    0.8749974780    0.4311562562          0.2191
C280       C    0.6250008595    0.8749975597    0.3188468122          0.2819
O281       O    0.1249989246    0.8316309705    0.6498536467         -1.3557
O282       O    0.1249985260    0.9183665765    0.6498524701         -1.3655
O283       O    0.0816299846    0.8750025304    0.6498516641         -1.2517
O284       O    0.1683706262    0.8749981784    0.6498544579         -1.3358
O285       O    0.1683712774    0.8749978734    0.6001490290         -1.3313
O286       O    0.0816337971    0.8749990657    0.6001463165         -1.2439
O287       O    0.1249991772    0.9183662715    0.6001470412         -1.3689
O288       O    0.1249995758    0.8316306655    0.6001482178         -1.3567
Cu289     Cu    0.1249982857    0.8750011639    0.6543889749          1.0456
Cu290     Cu    0.1249998162    0.8749960781    0.5956117130          1.0433
C291       C    0.1249987711    0.8188419157    0.6250004507          0.3063
C292       C    0.1249993307    0.9311553263    0.6250002372          0.2977
C293       C    0.0688442748    0.8749986671    0.6250005466          0.2191
C294       C    0.1811538270    0.8749985749    0.6250001413          0.2819
O295       O    0.1250002142    0.1683671294    0.6498527419         -1.3557
O296       O    0.1250008804    0.0816315234    0.6498517568         -1.3655
O297       O    0.1683692880    0.1249957033    0.6498506365         -1.2517
O298       O    0.0816286464    0.1249997877    0.6498538674         -1.3358
O299       O    0.0816277561    0.1249999989    0.6001484385         -1.3313
O300       O    0.1683652364    0.1249990743    0.6001452888         -1.2439
O301       O    0.1249999901    0.0816317347    0.6001463278         -1.3689
O302       O    0.1249993239    0.1683673407    0.6001473130         -1.3567
Cu303     Cu    0.1250010088    0.1249969445    0.6543881658          1.0456
Cu304     Cu    0.1249991955    0.1250019195    0.5956109039          1.0433
C305       C    0.1250002087    0.1811561373    0.6249995177          0.3063
C306       C    0.1249999956    0.0688427268    0.6249995521          0.2977
C307       C    0.1811548782    0.1249995592    0.6249994546          0.2191
C308       C    0.0688453260    0.1249993049    0.6249996152          0.2819
O309       O    0.8316317722    0.1249987512    0.6498549795         -1.3557
O310       O    0.9183674199    0.1249997617    0.6498537291         -1.3655
O311       O    0.8750030393    0.1683679763    0.6498528156         -1.2517
O312       O    0.8749993148    0.0816273765    0.6498558983         -1.3358
O313       O    0.8749989652    0.0816265734    0.6001504694         -1.3313
O314       O    0.8749995299    0.1683640119    0.6001474679         -1.2439
O315       O    0.9183670703    0.1249989586    0.6001483002         -1.3689
O316       O    0.8316314226    0.1249979481    0.6001495506         -1.3567
Cu317     Cu    0.8750019906    0.1249997100    0.6543902708          1.0456
Cu318     Cu    0.8749968520    0.1249979998    0.5956130089          1.0433
C319       C    0.8188426889    0.1249987386    0.6250017944          0.3063
C320       C    0.9311561536    0.1249989713    0.6250014853          0.2977
C321       C    0.8749990611    0.1811536040    0.6250016555          0.2191
C322       C    0.8749997815    0.0688441059    0.6250016242          0.2819
O323       O    0.8750008575    0.8316310549    0.6498543068         -1.3557
O324       O    0.8749999956    0.9183666608    0.6498533512         -1.3655
O325       O    0.8316316859    0.8750023831    0.6498522182         -1.2517
O326       O    0.9183723274    0.8749984945    0.6498554450         -1.3358
O327       O    0.9183732267    0.8749983161    0.6001500161         -1.3313
O328       O    0.8316357464    0.8749990450    0.6001468706         -1.2439
O329       O    0.8750008949    0.9183664825    0.6001479222         -1.3689
O330       O    0.8750017568    0.8316308765    0.6001488778         -1.3567
Cu331     Cu    0.8749999642    0.8750012367    0.6543897455          1.0456
Cu332     Cu    0.8750017882    0.8749963006    0.5956124835          1.0433
C333       C    0.8750008964    0.8188420634    0.6250010782          0.3063
C334       C    0.8750008560    0.9311554740    0.6250011508          0.2977
C335       C    0.8188461001    0.8749985148    0.6250010369          0.2191
C336       C    0.9311556523    0.8749990226    0.6250011921          0.2819
O337       O    0.3501434290    0.1683663947    0.1249994951         -1.3557
O338       O    0.3501445164    0.0816307888    0.1250003718         -1.3655
O339       O    0.3501455112    0.1249950708    0.1683686324         -1.2517
O340       O    0.3501424288    0.1249989508    0.0816280743         -1.3358
O341       O    0.3998479056    0.1249992082    0.0816272578         -1.3313
O342       O    0.3998509067    0.1249984879    0.1683646546         -1.2439
O343       O    0.3998499931    0.0816310462    0.1249995552         -1.3689
O344       O    0.3998489057    0.1683666521    0.1249986786         -1.3567
Cu345     Cu    0.3456080518    0.1249962057    0.1250003882          1.0456
Cu346     Cu    0.4043853703    0.1250012352    0.1249986621          1.0433
C347       C    0.3749966621    0.1811554257    0.1249994955          0.3063
C348       C    0.3749967601    0.0688420152    0.1249995549          0.2977
C349       C    0.3749966952    0.1249989799    0.1811542472          0.2191
C350       C    0.3749967269    0.1249984610    0.0688448032          0.2819
O351       O    0.3501449822    0.0816309686    0.8750006547         -1.3557
O352       O    0.3501460580    0.1683665746    0.8750002567         -1.3655
O353       O    0.3501472759    0.1250025319    0.8316317568         -1.2517
O354       O    0.3501437591    0.1249981732    0.9183723149         -1.3358
O355       O    0.3998492358    0.1249979134    0.9183733690         -1.3313
O356       O    0.3998526713    0.1249991124    0.8316359722         -1.2439
O357       O    0.3998515348    0.1683663148    0.8750013109         -1.3689
O358       O    0.3998504589    0.0816307089    0.8750017089         -1.3567
Cu359     Cu    0.3456095992    0.1250011579    0.8749999793          1.0456
Cu360     Cu    0.4043869178    0.1249961256    0.8750019863          1.0433
C361       C    0.3749982170    0.0688419364    0.8750007026          0.3063
C362       C    0.3749983000    0.1811553470    0.8750012630          0.2977
C363       C    0.3749985238    0.1249986922    0.8188462608          0.2191
C364       C    0.3749979931    0.1249985913    0.9311557048          0.2819
O365       O    0.3998520790    0.8749977810    0.8316316970         -1.3557
O366       O    0.3998509668    0.8749970277    0.9183672612         -1.3655
O367       O    0.3998500964    0.8316286845    0.8750030618         -1.2517
O368       O    0.3998529547    0.9183692844    0.8749990583         -1.3358
O369       O    0.3501474780    0.9183699713    0.8749987879         -1.3313
O370       O    0.3501447009    0.8316325328    0.8749996316         -1.2439
O371       O    0.3501454901    0.8749977147    0.9183669908         -1.3689
O372       O    0.3501466023    0.8749984680    0.8316314266         -1.3567
Cu373     Cu    0.4043874438    0.8749969614    0.8750018664          1.0456
Cu374     Cu    0.3456101253    0.8749985343    0.8749968214          1.0433
C375       C    0.3749988496    0.8749976977    0.8188426656          0.3063
C376       C    0.3749987195    0.8749977980    0.9311560221          0.2977
C377       C    0.3749989455    0.8188429988    0.8749991643          0.2191
C378       C    0.3749986236    0.9311524969    0.8749995235          0.2819
O379       O    0.3998518013    0.8749989285    0.1683685615         -1.3557
O380       O    0.3998507272    0.8749992610    0.0816329973         -1.3655
O381       O    0.3998494905    0.9183678146    0.1249969864         -1.2517
O382       O    0.3998530433    0.8316272148    0.1250014106         -1.3358
O383       O    0.3501475665    0.8316261389    0.1250016705         -1.3313
O384       O    0.3501440950    0.9183635774    0.1250004060         -1.2439
O385       O    0.3501452504    0.8749981851    0.0816332572         -1.3689
O386       O    0.3501463245    0.8749978526    0.1683688214         -1.3567
Cu387     Cu    0.4043871851    0.8749995732    0.1249983931          1.0456
Cu388     Cu    0.3456098666    0.8749975404    0.1250034256          1.0433
C389       C    0.3749985662    0.8749988794    0.1811575876          0.3063
C390       C    0.3749984855    0.8749982342    0.0688442311          0.2977
C391       C    0.3749982372    0.9311533059    0.1250008166          0.2191
C392       C    0.3749988145    0.8188438078    0.1250010022          0.2819
O393       O    0.9183674306    0.3998501371    0.1249993953         -1.3557
O394       O    0.8316317829    0.3998489005    0.1250000602         -1.3655
O395       O    0.8749959819    0.3998480960    0.1683684267         -1.2517
O396       O    0.8750000697    0.3998509469    0.0816278686         -1.3358
O397       O    0.8750004216    0.3501454940    0.0816271984         -1.3313
O398       O    0.8749994935    0.3501427244    0.1683645952         -1.2439
O399       O    0.8316321348    0.3501434476    0.1249993900         -1.3689
O400       O    0.9183677825    0.3501446843    0.1249987251         -1.3567
Cu401     Cu    0.8749972120    0.4043854375    0.1250001692          1.0456
Cu402     Cu    0.8750023533    0.3456081472    0.1249986161          1.0433
C403       C    0.9311565150    0.3749969380    0.1249995001          0.3063
C404       C    0.8188430504    0.3749966468    0.1249992853          0.2977
C405       C    0.8749999077    0.3749969581    0.1811541147          0.2191
C406       C    0.8749996577    0.3749966266    0.0688446707          0.2819
O407       O    0.9183668717    0.3501432463    0.8750007278         -1.3557
O408       O    0.8316312240    0.3501439021    0.8750005334         -1.3655
O409       O    0.8749951977    0.3501451508    0.8316319317         -1.2517
O410       O    0.8749997362    0.3501419923    0.9183724897         -1.3358
O411       O    0.8749997463    0.3998474451    0.9183733362         -1.3313
O412       O    0.8749983675    0.3998505224    0.8316359394         -1.2439
O413       O    0.8316312341    0.3998493549    0.8750013799         -1.3689
O414       O    0.9183668818    0.3998486991    0.8750015743         -1.3567
Cu415     Cu    0.8749966844    0.3456076555    0.8750001731          1.0456
Cu416     Cu    0.8750014215    0.4043849457    0.8750019346          1.0433
C417       C    0.9311557852    0.3749965310    0.8750006418          0.3063
C418       C    0.8188423206    0.3749960702    0.8750014658          0.2977
C419       C    0.8749988861    0.3749963340    0.8188463318          0.2191
C420       C    0.8749992197    0.3749962672    0.9311557758          0.2819
O421       O    0.1249993002    0.3501458532    0.1683678028         -1.3557
O422       O    0.1249999328    0.3501468751    0.0816322386         -1.3655
O423       O    0.1683683572    0.3501480702    0.1249963797         -1.2517
O424       O    0.0816277156    0.3501446528    0.1250004997         -1.3358
O425       O    0.0816267083    0.3998501056    0.1250007161         -1.3313
O426       O    0.1683641886    0.3998534417    0.1249997558         -1.2439
O427       O    0.1249989255    0.3998523279    0.0816324549         -1.3689
O428       O    0.1249982929    0.3998513060    0.1683680191         -1.3567
Cu429     Cu    0.1250000887    0.3456104454    0.1249976383          1.0456
Cu430     Cu    0.1249981370    0.4043877357    0.1250026193          1.0433
C431       C    0.1249992411    0.3749990839    0.1811568071          0.3063
C432       C    0.1249989846    0.3749990971    0.0688434506          0.2977
C433       C    0.1811538889    0.3749992915    0.1250002330          0.2191
C434       C    0.0688443368    0.3749988896    0.1250000247          0.2819
O435       O    0.1249992107    0.3501470349    0.8316317756         -1.3557
O436       O    0.1249984854    0.3501478143    0.9183673399         -1.3655
O437       O    0.0816301074    0.3501486887    0.8750031524         -1.2517
O438       O    0.1683707490    0.3501461553    0.8749991250         -1.3358
O439       O    0.1683712408    0.3998516081    0.8749990316         -1.3313
O440       O    0.0816337605    0.3998540603    0.8749998992         -1.2439
O441       O    0.1249989773    0.3998532672    0.9183672465         -1.3689
O442       O    0.1249997026    0.3998524878    0.8316316823         -1.3567
Cu443     Cu    0.1249984229    0.3456115059    0.8750019289          1.0456
Cu444     Cu    0.1249997651    0.4043887962    0.8749970932          1.0433
C445       C    0.1249990257    0.3750003014    0.8188428328          0.3063
C446       C    0.1249991623    0.3750000007    0.9311561893          0.2977
C447       C    0.0688443179    0.3749997798    0.8749993469          0.2191
C448       C    0.1811538701    0.3750005223    0.8749996752          0.2819
O449       O    0.6498534406    0.8749978051    0.1683690286         -1.3557
O450       O    0.6498524512    0.8749986136    0.0816334644         -1.3655
O451       O    0.6498513468    0.9183669292    0.1249976914         -1.2517
O452       O    0.6498545502    0.8316263293    0.1250016397         -1.3358
O453       O    0.6001490735    0.8316254536    0.1250018511         -1.3313
O454       O    0.6001459513    0.9183628921    0.1250010626         -1.2439
O455       O    0.6001469744    0.8749977378    0.0816336758         -1.3689
O456       O    0.6001479638    0.8749969293    0.1683692400         -1.3567
Cu457     Cu    0.6543888668    0.8749986695    0.1249988646          1.0456
Cu458     Cu    0.5956115482    0.8749968734    0.1250038398          1.0433
C459       C    0.6250001930    0.8749977859    0.1811580305          0.3063
C460       C    0.6250002219    0.8749977570    0.0688446740          0.2977
C461       C    0.6250001450    0.9311525205    0.1250015675          0.2191
C462       C    0.6250002700    0.8188430224    0.1250011369          0.2819
O463       O    0.6498542771    0.8749979202    0.9183675202         -1.3557
O464       O    0.6498534101    0.8749986964    0.8316319560         -1.3655
O465       O    0.6498522041    0.9183670281    0.8749961668         -1.2517
O466       O    0.6498554883    0.8316264283    0.8750001474         -1.3358
O467       O    0.6001500116    0.8316255063    0.8750002887         -1.3313
O468       O    0.6001468086    0.9183629448    0.8749994678         -1.2439
O469       O    0.6001479333    0.8749977743    0.8316320972         -1.3689
O470       O    0.6001488003    0.8749969982    0.9183676614         -1.3567
Cu471     Cu    0.6543897645    0.8749987727    0.8749973626          1.0456
Cu472     Cu    0.5956124459    0.8749969219    0.8750022548          1.0433
C473       C    0.6250010115    0.8749978826    0.9311564870          0.3063
C474       C    0.6250011989    0.8749978119    0.8188431304          0.2977
C475       C    0.6250009904    0.9311525963    0.8750000031          0.2191
C476       C    0.6250012200    0.8188430982    0.8749996143          0.2819
O477       O    0.6001456730    0.0816292601    0.8750014229         -1.3557
O478       O    0.6001463344    0.1683648661    0.8750010614         -1.3655
O479       O    0.6001475848    0.1250008417    0.8316325432         -1.2517
O480       O    0.6001444173    0.1249964464    0.9183731013         -1.3358
O481       O    0.6498498941    0.1249964242    0.9183739553         -1.3313
O482       O    0.6498529803    0.1249976597    0.8316365585         -1.2439
O483       O    0.6498518112    0.1683648439    0.8750019154         -1.3689
O484       O    0.6498511498    0.0816292379    0.8750022769         -1.3567
Cu485     Cu    0.5956100828    0.1249994277    0.8750007840          1.0456
Cu486     Cu    0.6543874014    0.1249946763    0.8750025543          1.0433
C487       C    0.6249989689    0.0688403467    0.8750013653          0.3063
C488       C    0.6249985153    0.1811537573    0.8750019730          0.2977
C489       C    0.6249987813    0.1249971260    0.8188469471          0.2191
C490       C    0.6249987029    0.1249969779    0.9311563912          0.2819
O491       O    0.6001448957    0.0816300066    0.1250009127         -1.3557
O492       O    0.6001456449    0.1683656126    0.1249998982         -1.3655
O493       O    0.6001468722    0.1250012617    0.0816317065         -1.2517
O494       O    0.6001436632    0.1249975194    0.1683722646         -1.3358
O495       O    0.6498491399    0.1249974469    0.1683731424         -1.3313
O496       O    0.6498522677    0.1249980294    0.0816357456         -1.2439
O497       O    0.6498511217    0.1683655400    0.1250007760         -1.3689
O498       O    0.6498503725    0.0816299341    0.1250017905         -1.3567
Cu499     Cu    0.5956093494    0.1250001788    0.1249999451          1.0456
Cu500     Cu    0.6543866680    0.1249953678    0.1250017436          1.0433
C501       C    0.6249981786    0.0688410680    0.1250009634          0.3063
C502       C    0.6249978388    0.1811544786    0.1250007254          0.2977
C503       C    0.6249980748    0.1249974246    0.0688461224          0.2191
C504       C    0.6249979426    0.1249981221    0.1811555664          0.2819
O505       O    0.1250003442    0.6001454128    0.0816326755         -1.3557
O506       O    0.1249995711    0.6001461350    0.1683682397         -1.3655
O507       O    0.0816312170    0.6001472512    0.1250040283         -1.2517
O508       O    0.1683718586    0.6001442913    0.1250000487         -1.3358
O509       O    0.1683725948    0.6498497441    0.1249999881         -1.3313
O510       O    0.0816351145    0.6498526228    0.1250008080         -1.2439
O511       O    0.1250003074    0.6498515878    0.1683681791         -1.3689
O512       O    0.1250010804    0.6498508657    0.0816326149         -1.3567
Cu513     Cu    0.1249995102    0.5956098552    0.1250028257          1.0456
Cu514     Cu    0.1250011413    0.6543871454    0.1249980289          1.0433
C515       C    0.1250002884    0.6249986878    0.0688437490          0.3063
C516       C    0.1250003632    0.6249983128    0.1811571055          0.2977
C517       C    0.0688455497    0.6249984052    0.1250002323          0.2191
C518       C    0.1811551019    0.6249985954    0.1250006223          0.2819
O519       O    0.1249994103    0.6001469091    0.8316325951         -1.3557
O520       O    0.1249990579    0.6001477535    0.9183681593         -1.3655
O521       O    0.0816304934    0.6001488550    0.8750041583         -1.2517
O522       O    0.1683711350    0.6001458023    0.8749997580         -1.3358
O523       O    0.1683719244    0.6498512552    0.8749996274         -1.3313
O524       O    0.0816344441    0.6498542266    0.8750008680         -1.2439
O525       O    0.1249998473    0.6498532063    0.9183680287         -1.3689
O526       O    0.1250001997    0.6498523620    0.8316324645         -1.3567
Cu527     Cu    0.1249987818    0.5956114126    0.8750027517          1.0456
Cu528     Cu    0.1250004758    0.6543887028    0.8749978721          1.0433
C529       C    0.1249993191    0.6250001661    0.8188436337          0.3063
C530       C    0.1249999385    0.6249999494    0.9311569902          0.2977
C531       C    0.0688448527    0.6250000226    0.8750003892          0.2191
C532       C    0.1811544049    0.6250000928    0.8750002346          0.2819
O533       O    0.9183674640    0.6001453788    0.8750003725         -1.3557
O534       O    0.8316318163    0.6001461774    0.8749995882         -1.3655
O535       O    0.8749960849    0.6001472839    0.8316312814         -1.2517
O536       O    0.8750000336    0.6001442670    0.9183718395         -1.3358
O537       O    0.8750001254    0.6498497198    0.9183726049         -1.3313
O538       O    0.8749993365    0.6498526555    0.8316352081         -1.2439
O539       O    0.8316319082    0.6498516302    0.8750003536         -1.3689
O540       O    0.9183675559    0.6498508316    0.8750011379         -1.3567
Cu541     Cu    0.8749972692    0.5956098594    0.8749995302          1.0456
Cu542     Cu    0.8750021030    0.6543871496    0.8750011958          1.0433
C543       C    0.9311564184    0.6249986425    0.8750003329          0.3063
C544       C    0.8188429538    0.6249983665    0.8750003931          0.2977
C545       C    0.8749999012    0.6249984463    0.8188456410          0.2191
C546       C    0.8749994710    0.6249985627    0.9311550851          0.2819
O547       O    0.9183670998    0.6498508686    0.1249997066         -1.3557
O548       O    0.8316314521    0.6498497288    0.1250003128         -1.3655
O549       O    0.8749956217    0.6498486060    0.1683687086         -1.2517
O550       O    0.8749997683    0.6498519966    0.0816281506         -1.3358
O551       O    0.8750000647    0.6001465438    0.0816271711         -1.3313
O552       O    0.8749990779    0.6001432345    0.1683645679         -1.2439
O553       O    0.8316317485    0.6001442759    0.1249993333         -1.3689
O554       O    0.9183673962    0.6001454158    0.1249987272         -1.3567
Cu555     Cu    0.8749968863    0.6543862174    0.1250004793          1.0456
Cu556     Cu    0.8750019620    0.5956089271    0.1249985606          1.0433
C557       C    0.9311561565    0.6249976552    0.1249996654          0.3063
C558       C    0.8188426918    0.6249974893    0.1249993746          0.2977
C559       C    0.8749995111    0.6249973886    0.1811542420          0.2191
C560       C    0.8749993372    0.6249977559    0.0688447980          0.2819
O561       O    0.3749978554    0.3316308043    0.1498532333         -1.3557
O562       O    0.3749975405    0.4183664103    0.1498525003         -1.3655
O563       O    0.3316289573    0.3750024061    0.1498513574         -1.2517
O564       O    0.4183695989    0.3749979703    0.1498543816         -1.3358
O565       O    0.4183703821    0.3749979196    0.1001489526         -1.3313
O566       O    0.3316329018    0.3749991956    0.1001460097         -1.2439
O567       O    0.3749983237    0.4183663595    0.1001470714         -1.3689
O568       O    0.3749986386    0.3316307535    0.1001478044         -1.3567
Cu569     Cu    0.3749972463    0.3750009745    0.1543887834          1.0456
Cu570     Cu    0.3749989329    0.3749961893    0.0956115214          1.0433
C571       C    0.3749977556    0.3188418766    0.1249999719          0.3063
C572       C    0.3749984236    0.4311552872    0.1250003328          0.2977
C573       C    0.3188433135    0.3749986822    0.1250002059          0.2191
C574       C    0.4311528657    0.3749984817    0.1250000988          0.2819
O575       O    0.3749991917    0.6683661547    0.1001479773         -1.3557
O576       O    0.3749984473    0.5816305487    0.1001488577         -1.3655
O577       O    0.3316300788    0.6249947754    0.1001500588         -1.2517
O578       O    0.4183707204    0.6249987661    0.1001467709         -1.3358
O579       O    0.4183716434    0.6249989013    0.1498521998         -1.3313
O580       O    0.3316341631    0.6249980704    0.1498554064         -1.2439
O581       O    0.3749993703    0.5816306840    0.1498542866         -1.3689
O582       O    0.3750001146    0.6683662899    0.1498534062         -1.3567
Cu583     Cu    0.3749983550    0.6249959768    0.0956125010          1.0456
Cu584     Cu    0.3750002070    0.6250008619    0.1543897629          1.0433
C585       C    0.3749992250    0.6811551246    0.1250012170          0.3063
C586       C    0.3749993369    0.5688417140    0.1250010469          0.2977
C587       C    0.3188445049    0.6249986072    0.1250012491          0.2191
C588       C    0.4311540571    0.6249982314    0.1250010148          0.2819
O589       O    0.6249988324    0.6683653670    0.1498527517         -1.3557
O590       O    0.6249992779    0.5816297610    0.1498514451         -1.3655
O591       O    0.6683677958    0.6249938305    0.1498504077         -1.2517
O592       O    0.5816271543    0.6249981356    0.1498537943         -1.3358
O593       O    0.5816261748    0.6249985311    0.1001483654         -1.3313
O594       O    0.6683636551    0.6249973858    0.1001450601         -1.2439
O595       O    0.6249982984    0.5816301566    0.1001460162         -1.3689
O596       O    0.6249978529    0.6683657625    0.1001473228         -1.3567
Cu597     Cu    0.6249995248    0.6249951653    0.1543880149          1.0456
Cu598     Cu    0.6249976060    0.6250003582    0.0956107530          1.0433
C599       C    0.6249988148    0.6811544671    0.1249995749          0.3063
C600       C    0.6249983160    0.5688410565    0.1249991930          0.2977
C601       C    0.6811533415    0.6249977461    0.1249992029          0.2191
C602       C    0.5688437893    0.6249977774    0.1249995650          0.2819
O603       O    0.6683664439    0.3749976696    0.1498528065         -1.3557
O604       O    0.5816307962    0.3749972307    0.1498519266         -1.3655
O605       O    0.6249948911    0.3316287303    0.1498509424         -1.2517
O606       O    0.6249991872    0.4183693301    0.1498537959         -1.3358
O607       O    0.6249993358    0.4183700179    0.1001483670         -1.3313
O608       O    0.6249981995    0.3316325793    0.1001455947         -1.2439
O609       O    0.5816309449    0.3749979184    0.1001464976         -1.3689
O610       O    0.6683665926    0.3749983573    0.1001473776         -1.3567
Cu611     Cu    0.6249962439    0.3749970071    0.1543882831          1.0456
Cu612     Cu    0.6250011449    0.3749985809    0.0956110211          1.0433
C613       C    0.6811554267    0.3749975403    0.1249995667          0.3063
C614       C    0.5688419621    0.3749980477    0.1249997374          0.2977
C615       C    0.6249986846    0.3188430449    0.1249998161          0.2191
C616       C    0.6249987042    0.4311525431    0.1249994881          0.2819
O617       O    0.3316319949    0.6249990509    0.8998526071         -1.3557
O618       O    0.4183676426    0.6249996188    0.8998515221         -1.3655
O619       O    0.3750034832    0.6683680546    0.8998503229         -1.2517
O620       O    0.3749993162    0.5816274549    0.8998538115         -1.3358
O621       O    0.3749990613    0.5816264192    0.8501483826         -1.3313
O622       O    0.3750000686    0.6683638577    0.8501449753         -1.2439
O623       O    0.4183673878    0.6249985832    0.8501460931         -1.3689
O624       O    0.3316317401    0.6249980152    0.8501471782         -1.3567
Cu625     Cu    0.3750022046    0.6249998096    0.9043879811          1.0456
Cu626     Cu    0.3749971781    0.6249978245    0.8456107191          1.0433
C627       C    0.3188429590    0.6249989872    0.8749993976          0.3063
C628       C    0.4311564237    0.6249986469    0.8749993027          0.2977
C629       C    0.3749996176    0.6811535661    0.8749991030          0.2191
C630       C    0.3749997650    0.5688440680    0.8749995972          0.2819
O631       O    0.6683675319    0.6249986652    0.8501467569         -1.3557
O632       O    0.5816318841    0.6249995177    0.8501475929         -1.3655
O633       O    0.6249961780    0.6683678113    0.8501484567         -1.2517
O634       O    0.6250000761    0.5816272114    0.8501458879         -1.3358
O635       O    0.6250001882    0.5816266868    0.8998513168         -1.3313
O636       O    0.6249994499    0.6683641254    0.8998538043         -1.2439
O637       O    0.5816319963    0.6249989931    0.8998530218         -1.3689
O638       O    0.6683676440    0.6249981406    0.8998521858         -1.3567
Cu639     Cu    0.6249973352    0.6249995196    0.8456112584          1.0456
Cu640     Cu    0.6250021929    0.6249981387    0.9043885203          1.0433
C641       C    0.6811564964    0.6249988150    0.8750000031          0.3063
C642       C    0.5688430317    0.6249988432    0.8749997756          0.2977
C643       C    0.6250000119    0.6811535782    0.8749995410          0.2191
C644       C    0.6249995162    0.5688440801    0.8750002377          0.2819
O645       O    0.6249989676    0.3316303213    0.8501498445         -1.3557
O646       O    0.6249999854    0.4183659273    0.8501505474         -1.3655
O647       O    0.6683682172    0.3750015639    0.8501517043         -1.2517
O648       O    0.5816275756    0.3749978466    0.8501486824         -1.3358
O649       O    0.5816267937    0.3749977971    0.8998541113         -1.3313
O650       O    0.6683642740    0.3749983546    0.8998570519         -1.2439
O651       O    0.6249992035    0.4183658777    0.8998559764         -1.3689
O652       O    0.6249981857    0.3316302718    0.8998552734         -1.3567
Cu653     Cu    0.6249999281    0.3750004914    0.8456142794          1.0456
Cu654     Cu    0.6249982430    0.3749957076    0.9043915414          1.0433
C655       C    0.6249989645    0.3188413942    0.8750031103          0.3063
C656       C    0.6249992066    0.4311548048    0.8750027105          0.2977
C657       C    0.6811538616    0.3749977346    0.8750028554          0.2191
C658       C    0.5688443095    0.3749984644    0.8750029655          0.2819
O659       O    0.3749992663    0.3316318350    0.8501484652         -1.3557
O660       O    0.3750002109    0.4183674410    0.8501491937         -1.3655
O661       O    0.4183684793    0.3750031141    0.8501506751         -1.2517
O662       O    0.3316278377    0.3749993238    0.8501469785         -1.3358
O663       O    0.3316266692    0.3749992596    0.8998524074         -1.3313
O664       O    0.4183641494    0.3749998902    0.8998560228         -1.2439
O665       O    0.3749990424    0.4183673768    0.8998546226         -1.3689
O666       O    0.3749980977    0.3316317708    0.8998538941         -1.3567
Cu667     Cu    0.3750002255    0.3750020065    0.8456129130          1.0456
Cu668     Cu    0.3749980832    0.3749972054    0.9043901749          1.0433
C669       C    0.3749990806    0.3188429006    0.8750017273          0.3063
C670       C    0.3749992281    0.4311563112    0.8750013606          0.2977
C671       C    0.4311539304    0.3749992883    0.8750019257          0.2191
C672       C    0.3188443782    0.3749999235    0.8750011622          0.2819
C1623      C    0.5172101488    0.4016619897    0.8616709749          0.3708
C1624      C    0.5344214674    0.3749986704    0.8750027055          0.3708
C1625      C    0.5172104385    0.3483355571    0.8883341762          0.3708
C1626      C    0.4827880910    0.3483357631    0.8883339163          0.3708
C1627      C    0.4655767725    0.3749990824    0.8750021857          0.3708
C1628      C    0.4827878014    0.4016621956    0.8616707150          0.3708
H1629      H    0.5299507806    0.4213996190    0.8518022239          0.3708
H1630      H    0.5299496506    0.3285986192    0.8982026977          0.3708
H1631      H    0.4700474593    0.3285981338    0.8982026673          0.3708
H1632      H    0.4700485893    0.4213991336    0.8518021935          0.3708
C1613      C    0.6315819743    0.5172096709    0.8459266449          0.3708
C1614      C    0.6249994388    0.5344217733    0.8750008559          0.3708
C1615      C    0.6184168260    0.5172115449    0.9040756852          0.3708
C1616      C    0.6184167485    0.4827892141    0.9040763034          0.3708
C1617      C    0.6249992840    0.4655771116    0.8750020923          0.3708
C1618      C    0.6315818969    0.4827873400    0.8459272631          0.3708
H1619      H    0.6364548176    0.5299497101    0.8244037193          0.3708
H1620      H    0.6135442483    0.5299513373    0.9255972330          0.3708
H1621      H    0.6135439052    0.4700491748    0.9255992289          0.3708
H1622      H    0.6364544746    0.4700475476    0.8244057152          0.3708
C1603      C    0.3749997535    0.5172113279    0.9048106238          0.3708
C1604      C    0.3749996308    0.5344225204    0.8750000380          0.3708
C1605      C    0.3749993738    0.5172113822    0.8451898932          0.3708
C1606      C    0.3749992396    0.4827890513    0.8451903340          0.3708
C1607      C    0.3749993623    0.4655778587    0.8750009197          0.3708
C1608      C    0.3749996193    0.4827889970    0.9048110646          0.3708
H1609      H    0.3749999438    0.5299520406    0.9268778739          0.3708
H1610      H    0.3749992829    0.5299505011    0.8231232602          0.3708
H1611      H    0.3749990493    0.4700483386    0.8231230839          0.3708
H1612      H    0.3749997102    0.4700498781    0.9268776976          0.3708
C1593      C    0.4827888534    0.6243002268    0.9048016610          0.3708
C1594      C    0.4655773803    0.6249986960    0.8749994209          0.3708
C1595      C    0.4827882546    0.6256972143    0.8451972990          0.3708
C1596      C    0.5172106020    0.6256972634    0.8451974172          0.3708
C1597      C    0.5344220751    0.6249987942    0.8749996574          0.3708
C1598      C    0.5172112008    0.6243002759    0.9048017792          0.3708
H1599      H    0.4700483361    0.6237831418    0.9268629720          0.3708
H1600      H    0.4700489280    0.6262142408    0.8231368436          0.3708
H1601      H    0.5299511193    0.6262143483    0.8231361062          0.3708
H1602      H    0.5299505274    0.6237832493    0.9268622346          0.3708
C1583      C    0.6434075192    0.5172075648    0.1015522307          0.3708
C1584      C    0.6249984131    0.5344191306    0.1249992668          0.3708
C1585      C    0.6065894040    0.5172083656    0.1484463765          0.3708
C1586      C    0.6065895010    0.4827860347    0.1484464503          0.3708
C1587      C    0.6249986072    0.4655744689    0.1249994143          0.3708
C1588      C    0.6434076163    0.4827852340    0.1015523045          0.3708
H1589      H    0.6570349675    0.5299480013    0.0841952793          0.3708
H1590      H    0.5929624664    0.5299477607    0.1658025313          0.3708
H1591      H    0.5929620527    0.4700455982    0.1658034017          0.3708
H1592      H    0.6570345538    0.4700458388    0.0841961497          0.3708
C1573      C    0.4827878557    0.6055977269    0.1023667544          0.3708
C1574      C    0.4655765758    0.6249981179    0.1250006523          0.3708
C1575      C    0.4827876433    0.6443983954    0.1476341878          0.3708
C1576      C    0.5172099907    0.6443982819    0.1476338253          0.3708
C1577      C    0.5344212706    0.6249978909    0.1249999274          0.3708
C1578      C    0.5172102031    0.6055976134    0.1023663920          0.3708
H1579      H    0.4700471953    0.5912364825    0.0856120594          0.3708
H1580      H    0.4700484598    0.6587591099    0.1643884348          0.3708
H1581      H    0.5299506511    0.6587595263    0.1643885204          0.3708
H1582      H    0.5299493866    0.5912368990    0.0856121449          0.3708
C1563      C    0.4827867573    0.4025155906    0.1364654884          0.3708
C1564      C    0.4655750664    0.3749983732    0.1250000085          0.3708
C1565      C    0.4827857230    0.3474810472    0.1135344382          0.3708
C1566      C    0.5172080704    0.3474809388    0.1135343478          0.3708
C1567      C    0.5344197613    0.3749981562    0.1249998278          0.3708
C1568      C    0.5172091048    0.4025154821    0.1364653980          0.3708
H1569      H    0.4700464012    0.4228855591    0.1449529885          0.3708
H1570      H    0.4700462352    0.3271120299    0.1050473678          0.3708
H1571      H    0.5299484265    0.3271109702    0.1050468477          0.3708
H1572      H    0.5299485925    0.4228844995    0.1449524684          0.3708
C1553      C    0.4044545745    0.4827875658    0.1204163964          0.3708
C1554      C    0.3749986519    0.4655761698    0.1250005114          0.3708
C1555      C    0.3455429576    0.4827871046    0.1295848048          0.3708
C1556      C    0.3455431860    0.5172094354    0.1295849833          0.3708
C1557      C    0.3749991086    0.5344208315    0.1250008684          0.3708
C1558      C    0.4044548029    0.5172098966    0.1204165750          0.3708
H1559      H    0.4262594391    0.4700470036    0.1170228285          0.3708
H1560      H    0.3237388562    0.4700478351    0.1329780955          0.3708
H1561      H    0.3237383214    0.5299499976    0.1329785512          0.3708
H1562      H    0.4262589043    0.5299491661    0.1170232843          0.3708
C1543      C    0.7672087333    0.5951872060    0.1249993102          0.3708
C1544      C    0.7844203641    0.6249975535    0.1249993317          0.3708
C1545      C    0.7672096474    0.6548079653    0.1249993102          0.3708
C1546      C    0.7327873000    0.6548080295    0.1249992673          0.3708
C1547      C    0.7155756692    0.6249976819    0.1249992458          0.3708
C1548      C    0.7327863859    0.5951872702    0.1249992673          0.3708
H1549      H    0.7799491340    0.5731197583    0.1249993261          0.3708
H1550      H    0.7799490907    0.6768744220    0.1249993261          0.3708
H1551      H    0.7200468994    0.6768754771    0.1249992514          0.3708
H1552      H    0.7200469426    0.5731208135    0.1249992514          0.3708
C1533      C    0.7672105891    0.6548089143    0.8750002469          0.3708
C1534      C    0.7844220725    0.6249984786    0.8750002956          0.3708
C1535      C    0.7672112085    0.5951881551    0.8750002469          0.3708
C1536      C    0.7327888611    0.5951882672    0.8750001494          0.3708
C1537      C    0.7155773777    0.6249987029    0.8750001006          0.3708
C1538      C    0.7327882417    0.6548090265    0.8750001494          0.3708
H1539      H    0.7799510988    0.6768762967    0.8750002830          0.3708
H1540      H    0.7799505427    0.5731216331    0.8750002830          0.3708
H1541      H    0.7200483514    0.5731208848    0.8750001133          0.3708
H1542      H    0.7200489075    0.6768755485    0.8750001133          0.3708
C1523      C    0.8938731438    0.6480729558    0.9827893362          0.3708
C1524      C    0.8749994376    0.6249983610    0.9655776272          0.3708
C1525      C    0.8561256978    0.6019235645    0.9827882325          0.3708
C1526      C    0.8561256644    0.6019233628    0.0172105468          0.3708
C1527      C    0.8749993706    0.6249979576    0.0344222558          0.3708
C1528      C    0.8938731103    0.6480727541    0.0172116505          0.3708
H1529      H    0.9078446135    0.6651542987    0.9700490180          0.3708
H1530      H    0.8421548502    0.5848431012    0.9700487314          0.3708
H1531      H    0.8421541947    0.5848420199    0.0299508650          0.3708
H1532      H    0.9078439579    0.6651532174    0.0299511516          0.3708
C1513      C    0.2327879656    0.6116680668    0.9016631220          0.3708
C1514      C    0.2155763345    0.6249998164    0.8750000254          0.3708
C1515      C    0.2327870509    0.6383312896    0.8483367195          0.3708
C1516      C    0.2672093983    0.6383310132    0.8483365102          0.3708
C1517      C    0.2844210294    0.6249992636    0.8749996068          0.3708
C1518      C    0.2672103130    0.6116677904    0.9016629128          0.3708
H1519      H    0.2200475652    0.6017993140    0.9214008939          0.3708
H1520      H    0.2200476074    0.6481998251    0.8285999463          0.3708
H1521      H    0.2799497988    0.6481997660    0.8285987383          0.3708
H1522      H    0.2799497565    0.6017992549    0.9213996860          0.3708
C1503      C    0.0172113890    0.6250486658    0.9048106929          0.3708
C1504      C    0.0344229830    0.6249996776    0.8750003752          0.3708
C1505      C    0.0172122295    0.6249503444    0.8451900434          0.3708
C1506      C    0.9827898821    0.6249499993    0.8451900293          0.3708
C1507      C    0.9655782881    0.6249989875    0.8750003470          0.3708
C1508      C    0.9827890416    0.6250483207    0.9048106788          0.3708
H1509      H    0.0299518169    0.6250851852    0.9268780813          0.3708
H1510      H    0.0299516455    0.6249140819    0.8231236088          0.3708
H1511      H    0.9700494542    0.6249134799    0.8231226408          0.3708
H1512      H    0.9700496256    0.6250845832    0.9268771134          0.3708
C1493      C    0.2327890726    0.5960782848    0.1177707818          0.3708
C1494      C    0.2155774560    0.6249985984    0.1250007790          0.3708
C1495      C    0.2327881867    0.6539189149    0.1322309329          0.3708
C1496      C    0.2672105341    0.6539189179    0.1322310896          0.3708
C1497      C    0.2844221508    0.6249986043    0.1250010924          0.3708
C1498      C    0.2672114201    0.5960782877    0.1177709385          0.3708
H1499      H    0.2200486616    0.5746697388    0.1124185899          0.3708
H1500      H    0.2200487539    0.6753265435    0.1375827800          0.3708
H1501      H    0.2799509452    0.6753274639    0.1375832815          0.3708
H1502      H    0.2799508529    0.5746706591    0.1124190914          0.3708
C1483      C    0.0172117488    0.6249981287    0.0951896544          0.3708
C1484      C    0.0344232005    0.6249982177    0.1250000905          0.3708
C1485      C    0.0172123048    0.6249981191    0.1548103850          0.3708
C1486      C    0.9827899574    0.6249979317    0.1548102433          0.3708
C1487      C    0.9655785057    0.6249978427    0.1249998071          0.3708
C1488      C    0.9827894014    0.6249979412    0.0951895127          0.3708
H1489      H    0.0299522820    0.6249982017    0.0731222936          0.3708
H1490      H    0.0299516155    0.6249981850    0.1768769073          0.3708
H1491      H    0.9700494242    0.6249978587    0.1768776041          0.3708
H1492      H    0.9700500907    0.6249978754    0.0731229904          0.3708
C1473      C    0.1512548740    0.6108805274    0.9827894198          0.3708
C1474      C    0.1250000260    0.6249996340    0.9655780553          0.3708
C1475      C    0.0987452654    0.6391184252    0.9827890051          0.3708
C1476      C    0.0987453529    0.6391181098    0.0172113194          0.3708
C1477      C    0.1250002009    0.6249990032    0.0344226839          0.3708
C1478      C    0.1512549615    0.6108802120    0.0172117341          0.3708
H1479      H    0.1706902162    0.6004289547    0.9700488466          0.3708
H1480      H    0.0793106894    0.6495697845    0.9700497590          0.3708
H1481      H    0.0793100107    0.6495696825    0.0299518927          0.3708
H1482      H    0.1706895375    0.6004288527    0.0299509802          0.3708
C1463      C    0.6544184747    0.2327877862    0.1201936784          0.3708
C1464      C    0.6249980502    0.2155764309    0.1250004981          0.3708
C1465      C    0.5955778372    0.2327874066    0.1298070904          0.3708
C1466      C    0.5955780487    0.2672097374    0.1298068631          0.3708
C1467      C    0.6249984731    0.2844210926    0.1250000434          0.3708
C1468      C    0.6544186861    0.2672101170    0.1201934510          0.3708
H1469      H    0.6761970739    0.2200471938    0.1166355516          0.3708
H1470      H    0.5738000125    0.2200481673    0.1333652334          0.3708
H1471      H    0.5737994494    0.2799503298    0.1333649899          0.3708
H1472      H    0.6761965108    0.2799493563    0.1166353081          0.3708
C1453      C    0.6279950845    0.2327865547    0.9046617902          0.3708
C1454      C    0.6249986276    0.2155752449    0.8750022573          0.3708
C1455      C    0.6220022829    0.2327862660    0.8453430087          0.3708
C1456      C    0.6220023952    0.2672085969    0.8453432931          0.3708
C1457      C    0.6249988522    0.2844199066    0.8750028260          0.3708
C1458      C    0.6279951968    0.2672088855    0.9046620745          0.3708
H1459      H    0.6302131578    0.2200459286    0.9266173378          0.3708
H1460      H    0.6197842213    0.2200470604    0.8233881893          0.3708
H1461      H    0.6197843219    0.2799492229    0.8233877455          0.3708
H1462      H    0.6302132584    0.2799480911    0.9266168940          0.3708
C1443      C    0.6222228276    0.1546780245    0.9827903904          0.3708
C1444      C    0.6249985459    0.1249970896    0.9655789425          0.3708
C1445      C    0.6277741071    0.0953162664    0.9827898089          0.3708
C1446      C    0.6277739501    0.0953163781    0.0172121232          0.3708
C1447      C    0.6249982318    0.1249973129    0.0344235710          0.3708
C1448      C    0.6222226706    0.1546781361    0.0172127046          0.3708
H1449      H    0.6201681914    0.1766495430    0.9700498789          0.3708
H1450      H    0.6298287717    0.0733456046    0.9700505010          0.3708
H1451      H    0.6298285863    0.0733448596    0.0299526347          0.3708
H1452      H    0.6201680060    0.1766487980    0.0299520125          0.3708
C1433      C    0.6548076113    0.7672088356    0.8745395635          0.3708
C1434      C    0.6250009180    0.7844206691    0.8749995960          0.3708
C1435      C    0.5951939226    0.7672101717    0.8754596101          0.3708
C1436      C    0.5951936206    0.7327878408    0.8754595918          0.3708
C1437      C    0.6250003139    0.7155760074    0.8749995593          0.3708
C1438      C    0.6548073093    0.7327865047    0.8745395452          0.3708
H1439      H    0.6768725300    0.7799490739    0.8741990336          0.3708
H1440      H    0.5731301708    0.7799497650    0.8758001390          0.3708
H1441      H    0.5731287019    0.7200476025    0.8758001217          0.3708
H1442      H    0.6768710611    0.7200469115    0.8741990163          0.3708
C1423      C    0.6524525275    0.9827862276    0.8633802346          0.3708
C1424      C    0.6250004851    0.9655741407    0.8750003437          0.3708
C1425      C    0.5975479372    0.9827843845    0.8866207933          0.3708
C1426      C    0.5975474318    0.0172067154    0.8866211339          0.3708
C1427      C    0.6249994743    0.0344188024    0.8750010248          0.3708
C1428      C    0.6524520222    0.0172085585    0.8633805751          0.3708
H1429      H    0.6727745435    0.9700461770    0.8547780835          0.3708
H1430      H    0.5772271641    0.9700446036    0.8952223245          0.3708
H1431      H    0.5772254159    0.0299467660    0.8952232849          0.3708
H1432      H    0.6727727952    0.0299483394    0.8547790439          0.3708
C1413      C    0.6501503217    0.7672090538    0.1410038775          0.3708
C1414      C    0.6249999062    0.7844210756    0.1250007464          0.3708
C1415      C    0.5998491269    0.7672107665    0.1089972247          0.3708
C1416      C    0.5998487631    0.7327884356    0.1089968342          0.3708
C1417      C    0.6249991786    0.7155764139    0.1249999654          0.3708
C1418      C    0.6501499579    0.7327867230    0.1410034870          0.3708
H1419      H    0.6687684310    0.7799491527    0.1528506403          0.3708
H1420      H    0.5812320828    0.7799504992    0.0971512575          0.3708
H1421      H    0.5812306538    0.7200483367    0.0971500715          0.3708
H1422      H    0.6687670020    0.7200469903    0.1528494543          0.3708
C1403      C    0.6009431132    0.9827856172    0.1073958419          0.3708
C1404      C    0.6249996534    0.9655744634    0.1250014165          0.3708
C1405      C    0.6490557020    0.9827856405    0.1426068400          0.3708
C1406      C    0.6490552104    0.0172079714    0.1426066890          0.3708
C1407      C    0.6249986702    0.0344191251    0.1250011144          0.3708
C1408      C    0.6009426216    0.0172079480    0.1073956909          0.3708
H1409      H    0.5831353889    0.9700448757    0.0943632557          0.3708
H1410      H    0.6668630289    0.9700465503    0.1556389809          0.3708
H1411      H    0.6668629347    0.0299487128    0.1556392752          0.3708
H1412      H    0.5831352947    0.0299470382    0.0943635500          0.3708
C1393      C    0.5955800621    0.8798036719    0.0172111717          0.3708
C1394      C    0.6250004193    0.8749977884    0.0344228947          0.3708
C1395      C    0.6544209740    0.8701919363    0.0172123035          0.3708
C1396      C    0.6544211714    0.8701919677    0.9827899892          0.3708
C1397      C    0.6250008141    0.8749978512    0.9655782662          0.3708
C1398      C    0.5955802595    0.8798037033    0.9827888574          0.3708
H1399      H    0.5738012099    0.8833612507    0.0299514795          0.3708
H1400      H    0.6761987489    0.8666344864    0.0299518150          0.3708
H1401      H    0.6762000235    0.8666343889    0.9700496814          0.3708
H1402      H    0.5738024845    0.8833611533    0.9700493459          0.3708
C1383      C    0.2327882662    0.3991267536    0.8925094427          0.3708
C1384      C    0.2155767767    0.3750003726    0.8750000469          0.3708
C1385      C    0.2327876347    0.3508738419    0.8574910229          0.3708
C1386      C    0.2672099821    0.3508736922    0.8574913946          0.3708
C1387      C    0.2844214716    0.3750000732    0.8750007904          0.3708
C1388      C    0.2672106137    0.3991266039    0.8925098144          0.3708
H1389      H    0.2200477610    0.4169866529    0.9054706683          0.3708
H1390      H    0.2200482960    0.3330148169    0.8445300762          0.3708
H1391      H    0.2799504873    0.3330137928    0.8445301690          0.3708
H1392      H    0.2799499524    0.4169856289    0.9054707611          0.3708
C1373      C    0.2327879602    0.4045792426    0.1286977436          0.3708
C1374      C    0.2155762538    0.3749991392    0.1250002262          0.3708
C1375      C    0.2327868948    0.3454188834    0.1213027021          0.3708
C1376      C    0.2672092422    0.3454187311    0.1213026953          0.3708
C1377      C    0.2844209486    0.3749988345    0.1250002127          0.3708
C1378      C    0.2672103076    0.4045790903    0.1286977368          0.3708
H1379      H    0.2200476155    0.4264763151    0.1314348718          0.3708
H1380      H    0.2200473956    0.3235228598    0.1185656959          0.3708
H1381      H    0.2799495869    0.3235216586    0.1185655671          0.3708
H1382      H    0.2799498069    0.4264751139    0.1314347430          0.3708
C1363      C    0.1215897795    0.3453846492    0.0172103794          0.3708
C1364      C    0.1249990290    0.3749993230    0.0344221342          0.3708
C1365      C    0.1284083230    0.4046142227    0.0172115748          0.3708
C1366      C    0.1284083674    0.4046144486    0.9827892605          0.3708
C1367      C    0.1249991179    0.3749997748    0.9655775057          0.3708
C1368      C    0.1215898239    0.3453848751    0.9827880651          0.3708
H1369      H    0.1190660165    0.3234619313    0.0299506636          0.3708
H1370      H    0.1309319452    0.4265358362    0.0299511099          0.3708
H1371      H    0.1309321304    0.4265371665    0.9700489763          0.3708
H1372      H    0.1190662016    0.3234632616    0.9700485300          0.3708
C1353      C    0.7672088108    0.3535877588    0.8957460449          0.3708
C1354      C    0.7844204385    0.3749964863    0.8750018132          0.3708
C1355      C    0.7672097189    0.3964056298    0.8542579289          0.3708
C1356      C    0.7327873714    0.3964060459    0.8542582763          0.3708
C1357      C    0.7155757437    0.3749973185    0.8750025080          0.3708
C1358      C    0.7327864634    0.3535881750    0.8957463923          0.3708
H1359      H    0.7799492137    0.3377394318    0.9111019074          0.3708
H1360      H    0.7799491599    0.4122529713    0.8389024658          0.3708
H1361      H    0.7200469686    0.4122543730    0.8389024138          0.3708
H1362      H    0.7200470224    0.3377408335    0.9111018554          0.3708
C1343      C    0.9827900401    0.3475976852    0.8867430344          0.3708
C1344      C    0.9655777042    0.3749973432    0.8750003181          0.3708
C1345      C    0.9827877156    0.4023978135    0.8632572781          0.3708
C1346      C    0.0172100631    0.4023986257    0.8632569543          0.3708
C1347      C    0.0344223990    0.3749989676    0.8749996707          0.3708
C1348      C    0.0172123875    0.3475984974    0.8867427107          0.3708
H1349      H    0.9700501615    0.3273142202    0.8954359342          0.3708
H1350      H    0.9700477504    0.4226798101    0.8545649896          0.3708
H1351      H    0.0299499417    0.4226820907    0.8545640546          0.3708
H1352      H    0.0299523528    0.3273165007    0.8954349992          0.3708
C1333      C    0.7672100882    0.3785841008    0.1545931475          0.3708
C1334      C    0.7844215860    0.3749968701    0.1249993556          0.3708
C1335      C    0.7672107363    0.3714098628    0.0954056342          0.3708
C1336      C    0.7327883889    0.3714100862    0.0954057045          0.3708
C1337      C    0.7155768911    0.3749973169    0.1249994964          0.3708
C1338      C    0.7327877408    0.3785843242    0.1545932179          0.3708
H1339      H    0.7799505873    0.3812394179    0.1765001881          0.3708
H1340      H    0.7799500811    0.3687544939    0.0734994780          0.3708
H1341      H    0.7200478898    0.3687547692    0.0734986639          0.3708
H1342      H    0.7200483959    0.3812396931    0.1764993740          0.3708
C1323      C    0.9827897197    0.3786951971    0.0954195308          0.3708
C1324      C    0.9655780785    0.3749974259    0.1249996312          0.3708
C1325      C    0.9827887847    0.3713001425    0.1545798628          0.3708
C1326      C    0.0172111321    0.3713006304    0.1545799939          0.3708
C1327      C    0.0344227733    0.3749984017    0.1249998935          0.3708
C1328      C    0.0172120671    0.3786956850    0.0954196620          0.3708
H1329      H    0.9700493267    0.3814321471    0.0735224763          0.3708
H1330      H    0.9700493337    0.3685629484    0.1764758841          0.3708
H1331      H    0.0299515250    0.3685636804    0.1764770485          0.3708
H1332      H    0.0299515181    0.3814328792    0.0735236407          0.3708
C1313      C    0.8674380835    0.4038319545    0.0172109212          0.3708
C1314      C    0.8749995482    0.3749965368    0.0344225375          0.3708
C1315      C    0.8825609034    0.3461610291    0.0172118395          0.3708
C1316      C    0.8825607939    0.3461609393    0.9827895253          0.3708
C1317      C    0.8749993292    0.3749963570    0.9655779090          0.3708
C1318      C    0.8674379740    0.4038318647    0.9827886070          0.3708
H1319      H    0.8618407167    0.4251777199    0.0299513081          0.3708
H1320      H    0.8881581120    0.3248162428    0.0299512721          0.3708
H1321      H    0.8881581607    0.3248151739    0.9700491384          0.3708
H1322      H    0.8618407654    0.4251766510    0.9700491744          0.3708
C1303      C    0.4041751145    0.7672103204    0.1311176160          0.3708
C1304      C    0.3749989171    0.7844217970    0.1250010559          0.3708
C1305      C    0.3458228224    0.7672109428    0.1188845495          0.3708
C1306      C    0.3458229250    0.7327886120    0.1188846032          0.3708
C1307      C    0.3749991224    0.7155771353    0.1250011633          0.3708
C1308      C    0.4041752171    0.7327879895    0.1311176696          0.3708
H1309      H    0.4257730028    0.7799508229    0.1356454194          0.3708
H1310      H    0.3242257814    0.7799502720    0.1143569000          0.3708
H1311      H    0.3242250367    0.7200481095    0.1143567998          0.3708
H1312      H    0.4257722581    0.7200486604    0.1356453192          0.3708
C1293      C    0.4048095915    0.7672091866    0.8749991410          0.3708
C1294      C    0.3749991135    0.7844206133    0.8749991490          0.3708
C1295      C    0.3451888035    0.7672097092    0.8749991416          0.3708
C1296      C    0.3451889716    0.7327873783    0.8749991263          0.3708
C1297      C    0.3749994496    0.7155759516    0.8749991184          0.3708
C1298      C    0.4048097596    0.7327868557    0.8749991257          0.3708
H1299      H    0.4268769638    0.7799497260    0.8749991465          0.3708
H1300      H    0.3231222503    0.7799490014    0.8749991475          0.3708
H1301      H    0.3231215993    0.7200468389    0.8749991209          0.3708
H1302      H    0.4268763129    0.7200475635    0.8749991198          0.3708
C1283      C    0.3749986560    0.9048083412    0.9827892744          0.3708
C1284      C    0.3749986610    0.8749979071    0.9655778124          0.3708
C1285      C    0.3749986075    0.8451875819    0.9827886646          0.3708
C1286      C    0.3749985490    0.8451876910    0.0172109789          0.3708
C1287      C    0.3749985440    0.8749981252    0.0344224409          0.3708
C1288      C    0.3749985975    0.9048084503    0.0172115887          0.3708
H1289      H    0.3749986956    0.9268757248    0.9700487734          0.3708
H1290      H    0.3749986112    0.8231210611    0.9700493462          0.3708
H1291      H    0.3749985094    0.8231203075    0.0299514799          0.3708
H1292      H    0.3749985938    0.9268749711    0.0299509070          0.3708
C1273      C    0.3802259254    0.2327884361    0.8456529625          0.3708
C1274      C    0.3749984952    0.2155767930    0.8750013791          0.3708
C1275      C    0.3697712601    0.2327874807    0.9043499117          0.3708
C1276      C    0.3697714552    0.2672098115    0.9043500278          0.3708
C1277      C    0.3749988854    0.2844214547    0.8750016112          0.3708
C1278      C    0.3802261205    0.2672107670    0.8456530786          0.3708
H1279      H    0.3840954371    0.2200480569    0.8239274254          0.3708
H1280      H    0.3659017693    0.2200480282    0.9260744341          0.3708
H1281      H    0.3659019435    0.2799501907    0.9260755649          0.3708
H1282      H    0.3840956112    0.2799502194    0.8239285562          0.3708
C1263      C    0.3744819484    0.0172082365    0.8451943687          0.3708
C1264      C    0.3749983186    0.0344195475    0.8750004078          0.3708
C1265      C    0.3755147905    0.0172085277    0.9048061522          0.3708
C1266      C    0.3755148922    0.9827861968    0.9048058574          0.3708
C1267      C    0.3749985220    0.9655748858    0.8749998183          0.3708
C1268      C    0.3744820501    0.9827859057    0.8451940739          0.3708
H1269      H    0.3740996251    0.0299488616    0.8231303761          0.3708
H1270      H    0.3758970222    0.0299477342    0.9268694198          0.3708
H1271      H    0.3758972155    0.9700455717    0.9268698500          0.3708
H1272      H    0.3740998183    0.9700466991    0.8231308063          0.3708
C1253      C    0.3476192205    0.2327881525    0.1132050785          0.3708
C1254      C    0.3749969354    0.2155763203    0.1249996146          0.3708
C1255      C    0.4023749238    0.2327868190    0.1367942697          0.3708
C1256      C    0.4023751972    0.2672091498    0.1367943889          0.3708
C1257      C    0.3749974822    0.2844209820    0.1249998528          0.3708
C1258      C    0.3476194938    0.2672104834    0.1132051976          0.3708
H1259      H    0.3273523979    0.2200479132    0.1044739701          0.3708
H1260      H    0.4226406776    0.2200472266    0.1455249167          0.3708
H1261      H    0.4226420197    0.2799493891    0.1455254972          0.3708
H1262      H    0.3273537401    0.2799500757    0.1044745507          0.3708
C1243      C    0.3690126176    0.0172080952    0.0957965810          0.3708
C1244      C    0.3749971293    0.0344199914    0.1249998703          0.3708
C1245      C    0.3809820104    0.0172095566    0.1542034750          0.3708
C1246      C    0.3809823797    0.9827872258    0.1542037904          0.3708
C1247      C    0.3749978679    0.9655753297    0.1250005011          0.3708
C1248      C    0.3690129869    0.9827857644    0.0957968964          0.3708
H1249      H    0.3645822511    0.0299482872    0.0741783282          0.3708
H1250      H    0.3854119142    0.0299491963    0.1758205702          0.3708
H1251      H    0.3854127462    0.9700470339    0.1758220433          0.3708
H1252      H    0.3645830831    0.9700461247    0.0741798013          0.3708
C1233      C    0.4047785668    0.1236832558    0.0172112764          0.3708
C1234      C    0.3749970435    0.1249984936    0.0344225683          0.3708
C1235      C    0.3452158367    0.1263137639    0.0172115458          0.3708
C1236      C    0.3452161533    0.1263137965    0.9827892316          0.3708
C1237      C    0.3749976766    0.1249985587    0.9655779397          0.3708
C1238      C    0.4047788833    0.1236832884    0.9827889621          0.3708
H1239      H    0.4268243951    0.1227096141    0.0299519034          0.3708
H1240      H    0.3231707165    0.1272873398    0.0299507382          0.3708
H1241      H    0.3231703249    0.1272874382    0.9700486046          0.3708
H1242      H    0.4268240035    0.1227097125    0.9700497698          0.3708
C1223      C    0.8735462067    0.0172104328    0.6547763328          0.3708
C1224      C    0.8750000501    0.0344221208    0.6250015059          0.3708
C1225      C    0.8764541621    0.0172114779    0.5952265606          0.3708
C1226      C    0.8764544308    0.9827891470    0.5952264423          0.3708
C1227      C    0.8750005874    0.9655774591    0.6250012692          0.3708
C1228      C    0.8735464754    0.9827881020    0.6547762144          0.3708
H1229      H    0.8724697861    0.0299507789    0.6768175260          0.3708
H1230      H    0.8775303379    0.0299509634    0.5731863973          0.3708
H1231      H    0.8775308514    0.9700488010    0.5731852490          0.3708
H1232      H    0.8724702996    0.9700486164    0.6768163778          0.3708
C1213      C    0.0172111079    0.1249991846    0.5951899512          0.3708
C1214      C    0.0344230872    0.1249992215    0.6250000827          0.3708
C1215      C    0.0172127192    0.1249991750    0.6548106818          0.3708
C1216      C    0.9827903717    0.1249990916    0.6548111493          0.3708
C1217      C    0.9655783924    0.1249990547    0.6250010178          0.3708
C1218      C    0.9827887605    0.1249991012    0.5951904187          0.3708
H1219      H    0.0299512505    0.1249992190    0.5731223649          0.3708
H1220      H    0.0299524204    0.1249992023    0.6768769786          0.3708
H1221      H    0.9700502291    0.1249990572    0.6768787356          0.3708
H1222      H    0.9700490592    0.1249990739    0.5731241219          0.3708
C1203      C    0.9827890576    0.8749988941    0.5951905848          0.3708
C1204      C    0.9655776161    0.8749989337    0.6250010307          0.3708
C1205      C    0.9827885221    0.8749988845    0.6548113153          0.3708
C1206      C    0.0172108695    0.8749987956    0.6548111540          0.3708
C1207      C    0.0344223110    0.8749987559    0.6250007080          0.3708
C1208      C    0.0172114051    0.8749988052    0.5951904234          0.3708
H1209      H    0.9700485169    0.8749989305    0.5731232312          0.3708
H1210      H    0.9700492189    0.8749989138    0.6768778449          0.3708
H1211      H    0.0299514102    0.8749987591    0.6768785075          0.3708
H1212      H    0.0299507082    0.8749987758    0.5731238938          0.3708
C1193      C    0.1125986883    0.9827881957    0.5978913842          0.3708
C1194      C    0.1249994969    0.9655766957    0.6250000659          0.3708
C1195      C    0.1374004718    0.9827875265    0.6521085764          0.3708
C1196      C    0.1374006381    0.0172098573    0.6521084051          0.3708
C1197      C    0.1249998294    0.0344213574    0.6249997234          0.3708
C1198      C    0.1125988545    0.0172105266    0.5978912129          0.3708
H1199      H    0.1034187458    0.9700477106    0.5778240453          0.3708
H1200      H    0.1465798988    0.9700481800    0.6721751841          0.3708
H1201      H    0.1465805805    0.0299503425    0.6721757440          0.3708
H1202      H    0.1034194275    0.0299498730    0.5778246052          0.3708
C1183      C    0.6547017649    0.8775473391    0.2672130309          0.3708
C1184      C    0.6250006929    0.8749976162    0.2844247356          0.3708
C1185      C    0.5952994542    0.8724479499    0.2672141260          0.3708
C1186      C    0.5952992876    0.8724480065    0.2327918117          0.3708
C1187      C    0.6250003597    0.8749977293    0.2155801070          0.3708
C1188      C    0.6547015983    0.8775473956    0.2327907167          0.3708
H1189      H    0.6766883961    0.8794347544    0.2799533523          0.3708
H1190      H    0.5733138863    0.8705605735    0.2799536239          0.3708
H1191      H    0.5733126564    0.8705605912    0.2200514903          0.3708
H1192      H    0.6766871662    0.8794347721    0.2200512187          0.3708
C1173      C    0.6471564593    0.8550526589    0.7327880318          0.3708
C1174      C    0.6250010974    0.8749975366    0.7155764384          0.3708
C1175      C    0.6028457693    0.8949425060    0.7327871593          0.3708
C1176      C    0.6028458031    0.8949425978    0.7672094736          0.3708
C1177      C    0.6250011651    0.8749977201    0.7844210670          0.3708
C1178      C    0.6471564932    0.8550527507    0.7672103461          0.3708
H1179      H    0.6635571568    0.8402882011    0.7200476280          0.3708
H1180      H    0.5864457480    0.9097062647    0.7200477437          0.3708
H1181      H    0.5864451057    0.9097070556    0.7799498774          0.3708
H1182      H    0.6635565145    0.8402889920    0.7799497617          0.3708
C1163      C    0.7327909340    0.8719861105    0.6546581389          0.3708
C1164      C    0.7155795896    0.8749977429    0.6250001566          0.3708
C1165      C    0.7327905925    0.8780096326    0.5953424678          0.3708
C1166      C    0.7672129400    0.8780098899    0.5953427612          0.3708
C1167      C    0.7844242844    0.8749982575    0.6250007435          0.3708
C1168      C    0.7672132814    0.8719863677    0.6546584323          0.3708
H1169      H    0.7200503214    0.8697565297    0.6766125320          0.3708
H1170      H    0.7200513612    0.8802389276    0.5733887961          0.3708
H1171      H    0.7799535526    0.8802394706    0.5733883681          0.3708
H1172      H    0.7799525127    0.8697570728    0.6766121040          0.3708
C1153      C    0.6156184009    0.8467020985    0.5172113251          0.3708
C1154      C    0.6250010381    0.8749973977    0.5344229078          0.3708
C1155      C    0.6343836938    0.9032927237    0.5172121763          0.3708
C1156      C    0.6343837124    0.9032927505    0.4827898620          0.3708
C1157      C    0.6250010752    0.8749974512    0.4655782793          0.3708
C1158      C    0.6156184195    0.8467021253    0.4827890108          0.3708
H1159      H    0.6086727986    0.8257562078    0.5299517368          0.3708
H1160      H    0.6413289854    0.9242376992    0.5299515839          0.3708
H1161      H    0.6413293147    0.9242386412    0.4700494503          0.3708
H1162      H    0.6086731278    0.8257571498    0.4700496031          0.3708
C1143      C    0.2672087070    0.8655714834    0.5967191142          0.3708
C1144      C    0.2844204474    0.8749983034    0.6249996236          0.3708
C1145      C    0.2672098403    0.8844252138    0.6532803055          0.3708
C1146      C    0.2327874928    0.8844253044    0.6532804781          0.3708
C1147      C    0.2155757525    0.8749984844    0.6249999687          0.3708
C1148      C    0.2327863596    0.8655715739    0.5967192868          0.3708
H1149      H    0.2799490265    0.8585931211    0.5757840639          0.3708
H1150      H    0.2799493646    0.8914032108    0.6742143331          0.3708
H1151      H    0.2200471733    0.8914036667    0.6742155283          0.3708
H1152      H    0.2200468352    0.8585935770    0.5757852592          0.3708
C1133      C    0.3768055621    0.9047533730    0.7327876238          0.3708
C1134      C    0.3749989633    0.8749978056    0.7155760345          0.3708
C1135      C    0.3731923266    0.8452422023    0.7327867593          0.3708
C1136      C    0.3731922887    0.8452421663    0.7672090736          0.3708
C1137      C    0.3749988875    0.8749977337    0.7844206630          0.3708
C1138      C    0.3768055242    0.9047533370    0.7672099381          0.3708
H1139      H    0.3781429425    0.9267802482    0.7200472171          0.3708
H1140      H    0.3718550314    0.8232162954    0.7200473467          0.3708
H1141      H    0.3718549083    0.8232152911    0.7799494804          0.3708
H1142      H    0.3781428194    0.9267792439    0.7799493507          0.3708
C1123      C    0.4827893674    0.8985285978    0.6433010653          0.3708
C1124      C    0.4655777259    0.8749977878    0.6249992371          0.3708
C1125      C    0.4827884319    0.8514668252    0.6066974774          0.3708
C1126      C    0.5172107793    0.8514666726    0.6066975459          0.3708
C1127      C    0.5344224208    0.8749974827    0.6249993741          0.3708
C1128      C    0.5172117149    0.8985284453    0.6433011338          0.3708
H1129      H    0.4700489747    0.9159476221    0.6568491212          0.3708
H1130      H    0.4700489807    0.8340486585    0.5931499500          0.3708
H1131      H    0.5299511720    0.8340476484    0.5931494900          0.3708
H1132      H    0.5299511661    0.9159466119    0.6568486612          0.3708
C1113      C    0.3611459940    0.8486033587    0.2672129729          0.3708
C1114      C    0.3749989176    0.8749996402    0.2844242868          0.3708
C1115      C    0.3888517241    0.9013956681    0.2672132863          0.3708
C1116      C    0.3888516069    0.9013954145    0.2327909720          0.3708
C1117      C    0.3749986834    0.8749991330    0.2155796582          0.3708
C1118      C    0.3611458769    0.8486031051    0.2327906586          0.3708
H1119      H    0.3508913191    0.8290634419    0.2799535836          0.3708
H1120      H    0.3991060473    0.9209349373    0.2799524950          0.3708
H1121      H    0.3991062818    0.9209353313    0.2200503613          0.3708
H1122      H    0.3508915537    0.8290638360    0.2200514500          0.3708
C1103      C    0.4827892935    0.8786404807    0.4045883995          0.3708
C1104      C    0.4655777129    0.8749992430    0.3750012567          0.3708
C1105      C    0.4827884796    0.8713575044    0.3454141679          0.3708
C1106      C    0.5172108271    0.8713570034    0.3454142220          0.3708
C1107      C    0.5344224077    0.8749982411    0.3750013648          0.3708
C1108      C    0.5172116409    0.8786399797    0.4045884536          0.3708
H1109      H    0.4700488558    0.8813363132    0.4264905301          0.3708
H1110      H    0.4700490735    0.8686621579    0.3235129336          0.3708
H1111      H    0.5299512648    0.8686611709    0.3235120914          0.3708
H1112      H    0.5299510471    0.8813353261    0.4264896879          0.3708
C1093      C    0.3452346964    0.8733464401    0.4827894180          0.3708
C1094      C    0.3749992421    0.8749994173    0.4655778803          0.3708
C1095      C    0.4047637768    0.8766520260    0.4827886568          0.3708
C1096      C    0.4047637658    0.8766516574    0.5172109711          0.3708
C1097      C    0.3749992201    0.8749986801    0.5344225089          0.3708
C1098      C    0.3452346854    0.8733460715    0.5172117323          0.3708
H1099      H    0.3232012097    0.8721230804    0.4700489731          0.3708
H1100      H    0.4267963297    0.8778756062    0.4700492824          0.3708
H1101      H    0.4267972526    0.8778750171    0.5299514161          0.3708
H1102      H    0.3232021325    0.8721224912    0.5299511067          0.3708
C1083      C    0.8806858563    0.3457339039    0.7327912241          0.3708
C1084      C    0.8749981897    0.3749967594    0.7155798177          0.3708
C1085      C    0.8693107553    0.4042594732    0.7327907255          0.3708
C1086      C    0.8693109874    0.4042593314    0.7672130398          0.3708
C1087      C    0.8749986540    0.3749964758    0.7844244462          0.3708
C1088      C    0.8806860884    0.3457337621    0.7672135384          0.3708
H1089      H    0.8848960350    0.3240718950    0.7200506819          0.3708
H1090      H    0.8651005847    0.4259206609    0.7200514483          0.3708
H1091      H    0.8651008087    0.4259213402    0.7799535820          0.3708
H1092      H    0.8848962590    0.3240725743    0.7799528156          0.3708
C1073      C    0.8459743775    0.2672084738    0.6181992614          0.3708
C1074      C    0.8749981834    0.2844203033    0.6250013987          0.3708
C1075      C    0.9040222819    0.2672098018    0.6318036216          0.3708
C1076      C    0.9040225744    0.2327874710    0.6318037072          0.3708
C1077      C    0.8749987685    0.2155756415    0.6250015699          0.3708
C1078      C    0.8459746700    0.2327861430    0.6181993470          0.3708
H1079      H    0.8244890059    0.2799487151    0.6131638496          0.3708
H1080      H    0.9255065184    0.2799493922    0.6368387547          0.3708
H1081      H    0.9255079460    0.2200472297    0.6368391189          0.3708
H1082      H    0.8244904335    0.2200465526    0.6131642139          0.3708
C1063      C    0.9047973010    0.3741172318    0.2327876760          0.3708
C1064      C    0.8749999016    0.3749971423    0.2155761080          0.3708
C1065      C    0.8452024962    0.3758772370    0.2327868543          0.3708
C1066      C    0.8452024901    0.3758774211    0.2672091686          0.3708
C1067      C    0.8749998895    0.3749975106    0.2844207366          0.3708
C1068      C    0.9047972949    0.3741174159    0.2672099902          0.3708
H1069      H    0.9268551206    0.3734657331    0.2200472534          0.3708
H1070      H    0.8231456241    0.3765285715    0.2200474575          0.3708
H1071      H    0.8231446705    0.3765289198    0.2799495912          0.3708
H1072      H    0.9268541670    0.3734660814    0.2799493870          0.3708
C1053      C    0.8454288121    0.3712206820    0.4827892676          0.3708
C1054      C    0.8749991421    0.3749977132    0.4655780167          0.3708
C1055      C    0.9045691246    0.3787745994    0.4827890800          0.3708
C1056      C    0.9045687772    0.3787744545    0.5172113943          0.3708
C1057      C    0.8749984473    0.3749974234    0.5344226453          0.3708
C1058      C    0.8454284647    0.3712205371    0.5172115819          0.3708
H1059      H    0.8235393445    0.3684248052    0.4700486104          0.3708
H1060      H    0.9264579135    0.3815704640    0.4700499179          0.3708
H1061      H    0.9264582448    0.3815703314    0.5299520516          0.3708
H1062      H    0.8235396758    0.3684246726    0.5299507440          0.3708
C1043      C    0.8775693670    0.7327872010    0.6547007494          0.3708
C1044      C    0.8750009505    0.7155755804    0.6250012682          0.3708
C1045      C    0.8724325160    0.7327862907    0.5953017237          0.3708
C1046      C    0.8724324979    0.7672086215    0.5953016603          0.3708
C1047      C    0.8750009144    0.7844202421    0.6250011415          0.3708
C1048      C    0.8775693489    0.7672095318    0.6547006861          0.3708
H1049      H    0.8794706757    0.7200468050    0.6766861266          0.3708
H1050      H    0.8705313019    0.7200468550    0.5733173334          0.3708
H1051      H    0.8705311893    0.7799490174    0.5733162832          0.3708
H1052      H    0.8794705630    0.7799489675    0.6766850764          0.3708
C1033      C    0.9041004469    0.6185291029    0.7327902853          0.3708
C1034      C    0.8750004178    0.6249975628    0.7155785254          0.3708
C1035      C    0.8459002165    0.6314663172    0.7327890798          0.3708
C1036      C    0.8459000443    0.6314666116    0.7672113941          0.3708
C1037      C    0.8750000734    0.6249981518    0.7844231540          0.3708
C1038      C    0.9041002747    0.6185293974    0.7672125996          0.3708
H1039      H    0.9256421543    0.6137405445    0.7200500048          0.3708
H1040      H    0.8243595574    0.6362544529    0.7200495410          0.3708
H1041      H    0.8243583368    0.6362551701    0.7799516746          0.3708
H1042      H    0.9256409338    0.6137412617    0.7799521384          0.3708
C1023      C    0.8735416302    0.5172068502    0.6547759561          0.3708
C1024      C    0.8749997883    0.5344184246    0.6250012745          0.3708
C1025      C    0.8764574059    0.5172076681    0.5952265663          0.3708
C1026      C    0.8764568653    0.4827853372    0.5952265397          0.3708
C1027      C    0.8749987072    0.4655737629    0.6250012213          0.3708
C1028      C    0.8735410896    0.4827845194    0.6547759295          0.3708
H1029      H    0.8724626146    0.5299472804    0.6768169738          0.3708
H1030      H    0.8775367755    0.5299470696    0.5731865105          0.3708
H1031      H    0.8775358810    0.4700449071    0.5731855219          0.3708
H1032      H    0.8724617200    0.4700451179    0.6768159852          0.3708
C1013      C    0.8494557718    0.6403645606    0.2672099109          0.3708
C1014      C    0.8749999317    0.6249970398    0.2844213158          0.3708
C1015      C    0.9005439514    0.6096296352    0.2672104065          0.3708
C1016      C    0.9005438112    0.6096297515    0.2327880922          0.3708
C1017      C    0.8749996513    0.6249972724    0.2155766873          0.3708
C1018      C    0.8494556316    0.6403646769    0.2327875967          0.3708
H1019      H    0.8305465624    0.6517404316    0.2799504543          0.3708
H1020      H    0.9194524561    0.5982541645    0.2799496825          0.3708
H1021      H    0.9194530206    0.5982538806    0.2200475489          0.3708
H1022      H    0.8305471269    0.6517401476    0.2200483206          0.3708
C1003      C    0.8467788490    0.5172082081    0.3653962609          0.3708
C1004      C    0.8749999680    0.5344196538    0.3750000058          0.3708
C1005      C    0.9032209919    0.5172087687    0.3846036008          0.3708
C1006      C    0.9032208969    0.4827864378    0.3846034509          0.3708
C1007      C    0.8749997779    0.4655749921    0.3749997061          0.3708
C1008      C    0.8467787539    0.4827858772    0.3653961111          0.3708
H1009      H    0.8258879612    0.5299487334    0.3582871062          0.3708
H1010      H    0.9241110570    0.5299480750    0.3917125625          0.3708
H1011      H    0.9241117847    0.4700459125    0.3917126057          0.3708
H1012      H    0.8258886888    0.4700465709    0.3582871493          0.3708
C993       C    0.8878974652    0.5981206866    0.4827910767          0.3516
C994       C    0.8750004371    0.6249968215    0.4655795417          0.3708
C995       C    0.8621034990    0.6518729623    0.4827903210          0.3708
C996       C    0.8621035892    0.6518729682    0.5172126353          0.3708
C997       C    0.8750006173    0.6249968334    0.5344241703          0.3708
C998       C    0.8878975554    0.5981206926    0.5172133910          0.3708
H999       H    0.8974445492    0.5782253616    0.4700506297          0.3708
H1000      H    0.8525567565    0.6717674323    0.4700509486          0.3708
H1001      H    0.8525565052    0.6717682932    0.5299530823          0.3708
H1002      H    0.8974442979    0.5782262225    0.5299527633          0.3708
C983       C    0.3954034355    0.1032662603    0.7327911789          0.3708
C984       C    0.3749989714    0.1249991179    0.7155796176          0.3708
C985       C    0.3545943581    0.1467318336    0.7327903706          0.3708
C986       C    0.3545942089    0.1467316917    0.7672126849          0.3708
C987       C    0.3749986730    0.1249988341    0.7844242462          0.3708
C988       C    0.3954032863    0.1032661184    0.7672134932          0.3708
H989       H    0.4105081492    0.0871784058    0.7200507514          0.3708
H990       H    0.3394904005    0.1628191053    0.7200509788          0.3708
H991       H    0.3394894952    0.1628195461    0.7799531124          0.3708
H992       H    0.4105072439    0.0871788466    0.7799528850          0.3708
C973       C    0.2672100755    0.1261502961    0.6547884055          0.3708
C974       C    0.2844219354    0.1249996054    0.6250004181          0.3708
C975       C    0.2672114477    0.1238488993    0.5952121095          0.3708
C976       C    0.2327891003    0.1238488839    0.5952117883          0.3708
C977       C    0.2155772405    0.1249995746    0.6249997757          0.3708
C978       C    0.2327877281    0.1261502807    0.6547880843          0.3708
H979       H    0.2799503066    0.1270021175    0.6768394911          0.3708
H980       H    0.2799510605    0.1229971257    0.5731622043          0.3708
H981       H    0.2200488692    0.1229970625    0.5731607027          0.3708
H982       H    0.2200481153    0.1270020543    0.6768379895          0.3708
C963       C    0.3959649566    0.1461899786    0.2672087855          0.3708
C964       C    0.3749975637    0.1250000272    0.2844207438          0.3708
C965       C    0.3540298812    0.1038097266    0.2672103878          0.3708
C966       C    0.3540295917    0.1038093775    0.2327880735          0.3708
C967       C    0.3749969847    0.1249993290    0.2155761152          0.3708
C968       C    0.3959646671    0.1461896296    0.2327864712          0.3708
H969       H    0.4114864878    0.1618763050    0.2799489191          0.3708
H970       H    0.3385092280    0.0881243292    0.2799500735          0.3708
H971       H    0.3385080606    0.0881230511    0.2200479399          0.3708
H972       H    0.4114853204    0.1618750269    0.2200467855          0.3708
C953       C    0.4029491479    0.1146354808    0.4827891559          0.3708
C954       C    0.3749985426    0.1250003245    0.4655777931          0.3708
C955       C    0.3470480988    0.1353649494    0.4827887446          0.3708
C956       C    0.3470482602    0.1353647306    0.5172110589          0.3708
C957       C    0.3749988655    0.1249998869    0.5344224217          0.3708
C958       C    0.4029493093    0.1146352621    0.5172114702          0.3708
H959       H    0.4236397362    0.1069629663    0.4700485815          0.3708
H960       H    0.3263582755    0.1430372978    0.4700494997          0.3708
H961       H    0.3263576719    0.1430372451    0.5299516334          0.3708
H962       H    0.4236391325    0.1069629136    0.5299507151          0.3708
C943       C    0.7327869119    0.1398554132    0.6508455232          0.3708
C944       C    0.7155755642    0.1249981604    0.6250012243          0.3708
C945       C    0.7327865639    0.1101411004    0.5991571155          0.3708
C946       C    0.7672089113    0.1101412931    0.5991573055          0.3708
C947       C    0.7844202590    0.1249985458    0.6250016044          0.3708
C948       C    0.7672092593    0.1398556059    0.6508457132          0.3708
H949       H    0.7200463017    0.1508534966    0.6699768765          0.3708
H950       H    0.7200473301    0.0991433445    0.5800264395          0.3708
H951       H    0.7799495215    0.0991432097    0.5800259523          0.3708
H952       H    0.7799484930    0.1508533617    0.6699763893          0.3708
C933       C    0.6011908084    0.1429376759    0.7327916519          0.3708
C934       C    0.6249985458    0.1249976010    0.7155799539          0.3708
C935       C    0.6488063617    0.1070573678    0.7327905703          0.3708
C936       C    0.6488064402    0.1070572094    0.7672128845          0.3708
C937       C    0.6249987028    0.1249972844    0.7844245825          0.3708
C938       C    0.6011908869    0.1429375176    0.7672139662          0.3708
H939       H    0.5835668408    0.1562181084    0.7200513255          0.3708
H940       H    0.6664295177    0.0937776203    0.7200510773          0.3708
H941       H    0.6664304078    0.0937767770    0.7799532109          0.3708
H942       H    0.5835677309    0.1562172651    0.7799534591          0.3708
C923       C    0.5172092275    0.0951884033    0.6248844629          0.3708
C924       C    0.5344210634    0.1249984052    0.6250008684          0.3708
C925       C    0.5172105518    0.1548087077    0.6251173546          0.3708
C926       C    0.4827882043    0.1548090084    0.6251174352          0.3708
C927       C    0.4655763685    0.1249990065    0.6250010297          0.3708
C928       C    0.4827868801    0.0951887040    0.6248845435          0.3708
H929       H    0.5299494764    0.0731210365    0.6247982329          0.3708
H930       H    0.5299501468    0.1768749085    0.6252035212          0.3708
H931       H    0.4700479555    0.1768763752    0.6252036652          0.3708
H932       H    0.4700472851    0.0731225032    0.6247983769          0.3708
C913       C    0.5953270900    0.1278793897    0.2672110341          0.3708
C914       C    0.6249980097    0.1249991455    0.2844226017          0.3708
C915       C    0.6546689069    0.1221185602    0.2672118551          0.3708
C916       C    0.6546688846    0.1221182191    0.2327895408          0.3708
C917       C    0.6249979649    0.1249984632    0.2155779732          0.3708
C918       C    0.5953270677    0.1278790485    0.2327887198          0.3708
H919       H    0.5733629193    0.1300117710    0.2799514569          0.3708
H920       H    0.6766321552    0.1199865226    0.2799512516          0.3708
H921       H    0.6766330553    0.1199858378    0.2200491180          0.3708
H922       H    0.5733638194    0.1300110862    0.2200493233          0.3708
C903       C    0.5172077519    0.0983367350    0.3883310847          0.3708
C904       C    0.5344195045    0.1249998605    0.3749995291          0.3708
C905       C    0.5172089097    0.1516631676    0.3616678834          0.3708
C906       C    0.4827865623    0.1516633492    0.3616677931          0.3708
C907       C    0.4655748097    0.1250002238    0.3749993487          0.3708
C908       C    0.4827854045    0.0983369167    0.3883309944          0.3708
H909       H    0.5299480623    0.0785989622    0.3981999653          0.3708
H910       H    0.5299484432    0.1713999621    0.3517994914          0.3708
H911       H    0.4700462519    0.1714011220    0.3517989125          0.3708
H912       H    0.4700458710    0.0786001222    0.3981993863          0.3708
C893       C    0.5955348989    0.1204637102    0.4827885477          0.3708
C894       C    0.6249982681    0.1249992375    0.4655770284          0.3708
C895       C    0.6544616309    0.1295344566    0.4827878233          0.3708
C896       C    0.6544616246    0.1295341484    0.5172101376          0.3708
C897       C    0.6249982554    0.1249986211    0.5344216570          0.3708
C898       C    0.5955348926    0.1204634020    0.5172108620          0.3708
H899       H    0.5737243576    0.1171064701    0.4700480891          0.3708
H900       H    0.6762712445    0.1328917813    0.4700484626          0.3708
H901       H    0.6762721659    0.1328913884    0.5299505962          0.3708
H902       H    0.5737252790    0.1171060773    0.5299502228          0.3708
C883       C    0.1249555820    0.5951895041    0.7327897592          0.3708
C884       C    0.1249982319    0.6249997903    0.7155780842          0.3708
C885       C    0.1250412442    0.6548102018    0.7327887235          0.3708
C886       C    0.1250416066    0.6548103271    0.7672110378          0.3708
C887       C    0.1249989567    0.6250000408    0.7844227128          0.3708
C888       C    0.1249559444    0.5951896293    0.7672120735          0.3708
H889       H    0.1249237417    0.5731220566    0.7200494159          0.3708
H890       H    0.1250728149    0.6768766132    0.7200492475          0.3708
H891       H    0.1250734469    0.6768777745    0.7799513812          0.3708
H892       H    0.1249243737    0.5731232180    0.7799515495          0.3708
C873       C    0.1548015393    0.7327871003    0.6243523353          0.3708
C874       C    0.1249980766    0.7155757341    0.6250004988          0.3708
C875       C    0.0951948455    0.7327866987    0.6256486463          0.3708
C876       C    0.0951950770    0.7672090295    0.6256486303          0.3708
C877       C    0.1249985396    0.7844203958    0.6250004667          0.3708
C878       C    0.1548017708    0.7672094312    0.6243523192          0.3708
H879       H    0.1768636715    0.7200465161    0.6238725378          0.3708
H880       H    0.0731334851    0.7200474512    0.6261284352          0.3708
H881       H    0.0731329448    0.7799496137    0.6261284277          0.3708
H882       H    0.1768631312    0.7799486786    0.6238725303          0.3708
C863       C    0.1546724530    0.6221316671    0.2672112948          0.3708
C864       C    0.1250001736    0.6249982395    0.2844228065          0.3708
C865       C    0.0953279574    0.6278648364    0.2672120040          0.3708
C866       C    0.0953280206    0.6278648608    0.2327896897          0.3708
C867       C    0.1250003000    0.6249982884    0.2155781780          0.3708
C868       C    0.1546725162    0.6221316916    0.2327889805          0.3708
H869       H    0.1766376000    0.6200096409    0.2799517590          0.3708
H870       H    0.0733637026    0.6299867538    0.2799513592          0.3708
H871       H    0.0733628735    0.6299868870    0.2200492255          0.3708
H872       H    0.1766367710    0.6200097741    0.2200496253          0.3708
C853       C    0.1424313408    0.6008167926    0.4827901022          0.3708
C854       C    0.1249991520    0.6249987375    0.4655782069          0.3708
C855       C    0.1075665512    0.6491808583    0.4827886258          0.3708
C856       C    0.1075661393    0.6491810342    0.5172109401          0.3708
C857       C    0.1249983282    0.6249990892    0.5344228354          0.3708
C858       C    0.1424309289    0.6008169684    0.5172124165          0.3708
H859       H    0.1553359934    0.5829157421    0.4700499219          0.3708
H860       H    0.0946627553    0.6670810133    0.4700489868          0.3708
H861       H    0.0946614868    0.6670820846    0.5299511204          0.3708
H862       H    0.1553347249    0.5829168134    0.5299520555          0.3708
C843       C    0.1134330373    0.2672107582    0.5975250174          0.3708
C844       C    0.1249998454    0.2844222616    0.6249998987          0.3708
C845       C    0.1365667746    0.2672114342    0.6524746530          0.3708
C846       C    0.1365668957    0.2327891034    0.6524745260          0.3708
C847       C    0.1250000876    0.2155775999    0.6249996447          0.3708
C848       C    0.1134331583    0.2327884274    0.5975248904          0.3708
H849       H    0.1048705052    0.2799512409    0.5771865629          0.3708
H850       H    0.1451288509    0.2799507832    0.6728123320          0.3708
H851       H    0.1451294277    0.2200486207    0.6728129804          0.3708
H852       H    0.1048710820    0.2200490784    0.5771872114          0.3708
C833       C    0.0963108217    0.3831019211    0.7327880620          0.3708
C834       C    0.1249992815    0.3750004461    0.7155765584          0.3708
C835       C    0.1536876561    0.3668989229    0.7327873692          0.3708
C836       C    0.1536875708    0.3668988747    0.7672096835          0.3708
C837       C    0.1249991110    0.3750003497    0.7844211870          0.3708
C838       C    0.0963107364    0.3831018729    0.7672103763          0.3708
H839       H    0.0750739730    0.3890991526    0.7200475917          0.3708
H840       H    0.1749236600    0.3609019835    0.7200480201          0.3708
H841       H    0.1749244195    0.3609016432    0.7799501537          0.3708
H842       H    0.0750747325    0.3890988123    0.7799497254          0.3708
C823       C    0.0951974658    0.4827898888    0.6242632875          0.3708
C824       C    0.1249989062    0.4655785946    0.6250003805          0.3708
C825       C    0.1548000248    0.4827896312    0.6257374985          0.3708
C826       C    0.1547997029    0.5172119620    0.6257375234          0.3708
C827       C    0.1249982625    0.5344232563    0.6250004304          0.3708
C828       C    0.0951971439    0.5172122197    0.6242633125          0.3708
H829       H    0.0731368975    0.4700492514    0.6237176288          0.3708
H830       H    0.1768598882    0.4700504370    0.6262831154          0.3708
H831       H    0.1768602712    0.5299525995    0.6262831821          0.3708
H832       H    0.0731372805    0.5299514139    0.6237176955          0.3708
C813       C    0.0966434520    0.3841964029    0.2672113772          0.3708
C814       C    0.1249998308    0.3749997211    0.2844228315          0.3708
C815       C    0.1533560131    0.3658028270    0.2672119716          0.3708
C816       C    0.1533558165    0.3658026146    0.2327896573          0.3708
C817       C    0.1249994377    0.3749992963    0.2155782030          0.3708
C818       C    0.0966432554    0.3841961905    0.2327890629          0.3708
H819       H    0.0756525119    0.3910044934    0.2799518839          0.3708
H820       H    0.1743462013    0.3589951847    0.2799512842          0.3708
H821       H    0.1743467566    0.3589945241    0.2200491506          0.3708
H822       H    0.0756530672    0.3910038327    0.2200497503          0.3708
C803       C    0.1540234765    0.4827884802    0.3681965672          0.3708
C804       C    0.1250000189    0.4655769095    0.3750008577          0.3708
C805       C    0.0959765304    0.4827876697    0.3818050292          0.3708
C806       C    0.0959764994    0.5172100005    0.3818049102          0.3708
C807       C    0.1249999569    0.5344215712    0.3750006197          0.3708
C808       C    0.1540234455    0.5172108110    0.3681964482          0.3708
H809       H    0.1755083965    0.4700480473    0.3631597130          0.3708
H810       H    0.0744925518    0.4700482709    0.3868417561          0.3708
H811       H    0.0744915793    0.5299504334    0.3868417644          0.3708
H812       H    0.1755074241    0.5299502098    0.3631597213          0.3708
C793       C    0.1546161958    0.3716039167    0.4827908858          0.3708
C794       C    0.1249999782    0.3750002795    0.4655792120          0.3708
C795       C    0.0953836297    0.3783966707    0.4827898524          0.3708
C796       C    0.0953834988    0.3783966991    0.5172121667          0.3708
C797       C    0.1249997164    0.3750003363    0.5344238406          0.3708
C798       C    0.1546160649    0.3716039451    0.5172132001          0.3708
H799       H    0.1765399862    0.3690897050    0.4700505416          0.3708
H800       H    0.0734608734    0.3809107539    0.4700503773          0.3708
H801       H    0.0734597084    0.3809109108    0.5299525109          0.3708
H802       H    0.1765388212    0.3690898619    0.5299526753          0.3708
C783       C    0.7672126393    0.9048079330    0.3750018531          0.3708
C784       C    0.7844243085    0.8749976045    0.3750018939          0.3708
C785       C    0.7672136302    0.8451871737    0.3750018531          0.3708
C786       C    0.7327912828    0.8451870714    0.3750017716          0.3708
C787       C    0.7155796136    0.8749973999    0.3750017309          0.3708
C788       C    0.7327902919    0.9048078307    0.3750017716          0.3708
H789       H    0.7799530116    0.9268753948    0.3750018833          0.3708
H790       H    0.7799531019    0.8231207311    0.3750018833          0.3708
H791       H    0.7200509106    0.8231196096    0.3750017415          0.3708
H792       H    0.7200508203    0.9268742733    0.3750017415          0.3708
C773       C    0.8819169807    0.7672068512    0.4039984684          0.3708
C774       C    0.8750007778    0.7844187224    0.3750016779          0.3708
C775       C    0.8680844342    0.7672082628    0.3460045691          0.3708
C776       C    0.8680842935    0.7327859319    0.3460042508          0.3708
C777       C    0.8750004964    0.7155740607    0.3750010414          0.3708
C778       C    0.8819168400    0.7327845203    0.4039981501          0.3708
H779       H    0.8870368715    0.7799470615    0.4254638606          0.3708
H780       H    0.8629648665    0.7799478840    0.3245403302          0.3708
H781       H    0.8629644028    0.7200457216    0.3245388586          0.3708
H782       H    0.8870364077    0.7200448990    0.4254623891          0.3708
C763       C    0.9047256344    0.2327877011    0.3772442709          0.3708
C764       C    0.8749999372    0.2155760632    0.3749992678          0.3708
C765       C    0.8452741577    0.2327867563    0.3727542621          0.3708
C766       C    0.8452740753    0.2672090871    0.3727542595          0.3708
C767       C    0.8749997725    0.2844207250    0.3749992626          0.3708
C768       C    0.9047255520    0.2672100319    0.3772442683          0.3708
H769       H    0.9267304322    0.2200473179    0.3789061583          0.3708
H770       H    0.8232703615    0.2200473078    0.3710924478          0.3708
H771       H    0.8232692775    0.2799494703    0.3710923722          0.3708
H772       H    0.9267293481    0.2799494804    0.3789060827          0.3708
C753       C    0.7672099489    0.1415349809    0.3501959172          0.3708
C754       C    0.7844215450    0.1249991134    0.3749996001          0.3708
C755       C    0.7672107936    0.1084633260    0.3998033636          0.3708
C756       C    0.7327884462    0.1084634061    0.3998034441          0.3708
C757       C    0.7155768501    0.1249992735    0.3749997612          0.3708
C758       C    0.7327876015    0.1415350609    0.3501959977          0.3708
H759       H    0.7799503752    0.1537757586    0.3318346897          0.3708
H760       H    0.7799502112    0.0962230124    0.4181637466          0.3708
H761       H    0.7200480199    0.0962226284    0.4181646716          0.3708
H762       H    0.7200481839    0.1537753746    0.3318356148          0.3708
C743       C    0.8683316197    0.9827882190    0.3459462921          0.3708
C744       C    0.8750009110    0.9655770881    0.3750013046          0.3708
C745       C    0.8816700534    0.9827882880    0.4040558254          0.3708
C746       C    0.8816699044    0.0172106189    0.4040553337          0.3708
C747       C    0.8750006131    0.0344217498    0.3750003211          0.3708
C748       C    0.8683314707    0.0172105498    0.3459458003          0.3708
H749       H    0.8633947221    0.9700474606    0.3244384000          0.3708
H750       H    0.8866068502    0.9700492148    0.4255631620          0.3708
H751       H    0.8866068020    0.0299513773    0.4255632257          0.3708
H752       H    0.8633946739    0.0299496231    0.3244384638          0.3708
C733       C    0.1499315047    0.7672082853    0.3586590764          0.3708
C734       C    0.1249993836    0.7844197333    0.3750008228          0.3708
C735       C    0.1000673840    0.7672088505    0.3913424995          0.3708
C736       C    0.1000675056    0.7327865196    0.3913424297          0.3708
C737       C    0.1249996267    0.7155750716    0.3750006834          0.3708
C738       C    0.1499316263    0.7327859544    0.3586590067          0.3708
H739       H    0.1683876602    0.7799488089    0.3465619911          0.3708
H740       H    0.0816119275    0.7799481584    0.4034391192          0.3708
H741       H    0.0816113500    0.7200459960    0.4034395150          0.3708
H742       H    0.1683870828    0.7200466464    0.3465623870          0.3708
C723       C    0.2327871651    0.9045792749    0.3786983407          0.3708
C724       C    0.2155758851    0.8749989272    0.3750007927          0.3708
C725       C    0.2327869525    0.8454189157    0.3713032992          0.3708
C726       C    0.2672092999    0.8454192519    0.3713033537          0.3708
C727       C    0.2844205800    0.8749995996    0.3750009017          0.3708
C728       C    0.2672095126    0.9045796111    0.3786983952          0.3708
H729       H    0.2200465048    0.9264761666    0.3814354462          0.3708
H730       H    0.2200477689    0.8235227113    0.3685662703          0.3708
H731       H    0.2799499602    0.8235223602    0.3685662481          0.3708
H732       H    0.2799486962    0.9264758155    0.3814354241          0.3708
C713       C    0.0172110947    0.8677680251    0.4039215598          0.3708
C714       C    0.0344224807    0.8749981240    0.3750011456          0.3708
C715       C    0.0172115194    0.8822281925    0.3460809552          0.3708
C716       C    0.9827891719    0.8822281621    0.3460811791          0.3708
C717       C    0.9655777859    0.8749980632    0.3750015933          0.3708
C718       C    0.9827887473    0.8677679947    0.4039217837          0.3708
H719       H    0.0299516765    0.8624158964    0.4253300124          0.3708
H720       H    0.0299507814    0.8875801148    0.3246732521          0.3708
H721       H    0.9700485901    0.8875802907    0.3246727264          0.3708
H722       H    0.9700494852    0.8624160723    0.4253294868          0.3708
C703       C    0.2327884478    0.1116686775    0.4016629287          0.3708
C704       C    0.2155767112    0.1250002438    0.3749998085          0.3708
C705       C    0.2327873220    0.1383319002    0.3483365261          0.3708
C706       C    0.2672096694    0.1383319903    0.3483363638          0.3708
C707       C    0.2844214060    0.1250004240    0.3749994840          0.3708
C708       C    0.2672107952    0.1116687676    0.4016627664          0.3708
H709       H    0.2200481255    0.1017997890    0.4214006832          0.3708
H710       H    0.2200478004    0.1482003001    0.3285997355          0.3708
H711       H    0.2799499917    0.1482008788    0.3285986093          0.3708
H712       H    0.2799503168    0.1018003677    0.4213995570          0.3708
C693       C    0.1268742870    0.2327900794    0.4047517087          0.3708
C694       C    0.1250000816    0.2155786934    0.3750002151          0.3708
C695       C    0.1231258778    0.2327896383    0.3452489279          0.3708
C696       C    0.1231258794    0.2672119691    0.3452491345          0.3708
C697       C    0.1250000849    0.2844233551    0.3750006282          0.3708
C698       C    0.1268742887    0.2672124103    0.4047519153          0.3708
H699       H    0.1282616846    0.2200495098    0.4267753888          0.3708
H700       H    0.1217385383    0.2200503762    0.3232260365          0.3708
H701       H    0.1217384818    0.2799525387    0.3232254544          0.3708
H702       H    0.1282616282    0.2799516723    0.4267748067          0.3708
C683       C    0.0172116806    0.1548099049    0.3749998608          0.3708
C684       C    0.0344234465    0.1249996322    0.3749999169          0.3708
C685       C    0.0172128649    0.0951891456    0.3749998608          0.3708
C686       C    0.9827905175    0.0951889316    0.3749997486          0.3708
C687       C    0.9655787516    0.1249992042    0.3749996924          0.3708
C688       C    0.9827893332    0.1548096909    0.3749997485          0.3708
H689       H    0.0299519812    0.1768774080    0.3749999024          0.3708
H690       H    0.0299524082    0.0731227443    0.3749999024          0.3708
H691       H    0.9700502169    0.0731214285    0.3749997070          0.3708
H692       H    0.9700497899    0.1768760921    0.3749997070          0.3708
C673       C    0.1418823204    0.0172100037    0.3995692659          0.3708
C674       C    0.1249997632    0.0344215172    0.3750001855          0.3708
C675       C    0.1081170492    0.0172106999    0.3504312990          0.3708
C676       C    0.1081168924    0.9827883690    0.3504314930          0.3708
C677       C    0.1249994496    0.9655768555    0.3750005734          0.3708
C678       C    0.1418821636    0.9827876728    0.3995694598          0.3708
H679       H    0.1543799139    0.0299504789    0.4177566234          0.3708
H680       H    0.0956201060    0.0299500563    0.3322445755          0.3708
H681       H    0.0956192989    0.9700478938    0.3322441355          0.3708
H682       H    0.1543791067    0.9700483164    0.4177561834          0.3708
loop_
_geom_bond_atom_site_label_1
_geom_bond_atom_site_label_2
_geom_bond_distance
_geom_bond_site_symmetry_2
_ccdc_geom_bond_type
O1          Cu9 1.951       .   S
O1          C11 1.250       .   A
O2          Cu9 1.951       .   S
O2          C12 1.250       .   A
O3          Cu9 1.951       .   S
O3          C13 1.250       .   A
O4          Cu9 1.951       .   S
O4          C14 1.250       .   A
O5         Cu10 1.951       .   S
O5          C14 1.250       .   A
O6         Cu10 1.951       .   S
O6          C13 1.251       .   A
O7         Cu10 1.951       .   S
O7          C12 1.250       .   A
O8         Cu10 1.951       .   S
O8          C11 1.250       .   A
Cu9        Cu10 2.630       .   S
C11        C674 1.540       .   S
C12        C694 1.540       .   S
C13        C684 1.540       .   S
C14        C704 1.540       .   S
O15        Cu23 1.951       .   S
O15         C25 1.250       .   A
O16        Cu23 1.951       .   S
O16         C26 1.250       .   A
O17        Cu23 1.951       .   S
O17         C27 1.250       .   A
O18        Cu23 1.951       .   S
O18         C28 1.250       .   A
O19        Cu24 1.951       .   S
O19         C28 1.250       .   A
O20        Cu24 1.951       .   S
O20         C27 1.251       .   A
O21        Cu24 1.951       .   S
O21         C26 1.250       .   A
O22        Cu24 1.951       .   S
O22         C25 1.250       .   A
Cu23       Cu24 2.630       .   S
C25        C677 1.540   1_565   S
C26        C734 1.540       .   S
C27        C724 1.540       .   S
C28        C714 1.540       .   S
O29        Cu37 1.951       .   S
O29         C39 1.250       .   A
O30        Cu37 1.951       .   S
O30         C40 1.250       .   A
O31        Cu37 1.951       .   S
O31         C41 1.250       .   A
O32        Cu37 1.951       .   S
O32         C42 1.250       .   A
O33        Cu38 1.951       .   S
O33         C42 1.250       .   A
O34        Cu38 1.951       .   S
O34         C41 1.251       .   A
O35        Cu38 1.951       .   S
O35         C40 1.250       .   A
O36        Cu38 1.951       .   S
O36         C39 1.250       .   A
Cu37       Cu38 2.630       .   S
C39        C687 1.540   1_655   S
C40        C754 1.540       .   S
C41        C747 1.540       .   S
C42        C764 1.540       .   S
O43        Cu51 1.951       .   S
O43         C53 1.250       .   A
O44        Cu51 1.951       .   S
O44         C54 1.250       .   A
O45        Cu51 1.951       .   S
O45         C55 1.250       .   A
O46        Cu51 1.951       .   S
O46         C56 1.250       .   A
O47        Cu52 1.951       .   S
O47         C56 1.250       .   A
O48        Cu52 1.951       .   S
O48         C55 1.251       .   A
O49        Cu52 1.951       .   S
O49         C54 1.250       .   A
O50        Cu52 1.951       .   S
O50         C53 1.250       .   A
Cu51       Cu52 2.630       .   S
C53        C744 1.540   1_565   S
C54        C774 1.540       .   S
C55        C717 1.540   1_655   S
C56        C784 1.540       .   S
O57        Cu65 1.951       .   S
O57         C67 1.250       .   A
O58        Cu65 1.951       .   S
O58         C68 1.250       .   A
O59        Cu65 1.951       .   S
O59         C69 1.250       .   A
O60        Cu65 1.951       .   S
O60         C70 1.250       .   A
O61        Cu66 1.951       .   S
O61         C70 1.250       .   A
O62        Cu66 1.951       .   S
O62         C69 1.251       .   A
O63        Cu66 1.951       .   S
O63         C68 1.250       .   A
O64        Cu66 1.951       .   S
O64         C67 1.250       .   A
Cu65       Cu66 2.630       .   S
C67        C814 1.540       .   S
C68        C794 1.540       .   S
C69        C697 1.540       .   S
C70        C804 1.540       .   S
O71        Cu79 1.951       .   S
O71         C81 1.250       .   A
O72        Cu79 1.951       .   S
O72         C82 1.250       .   A
O73        Cu79 1.951       .   S
O73         C83 1.250       .   A
O74        Cu79 1.951       .   S
O74         C84 1.250       .   A
O75        Cu80 1.951       .   S
O75         C84 1.250       .   A
O76        Cu80 1.951       .   S
O76         C83 1.251       .   A
O77        Cu80 1.951       .   S
O77         C82 1.250       .   A
O78        Cu80 1.951       .   S
O78         C81 1.250       .   A
Cu79       Cu80 2.630       .   S
C81        C844 1.540       .   S
C82        C824 1.540       .   S
C83        C797 1.540       .   S
C84        C834 1.540       .   S
O85        Cu93 1.951       .   S
O85         C95 1.250       .   A
O86        Cu93 1.951       .   S
O86         C96 1.250       .   A
O87        Cu93 1.951       .   S
O87         C97 1.250       .   A
O88        Cu93 1.951       .   S
O88         C98 1.250       .   A
O89        Cu94 1.951       .   S
O89         C98 1.250       .   A
O90        Cu94 1.951       .   S
O90         C97 1.251       .   A
O91        Cu94 1.951       .   S
O91         C96 1.250       .   A
O92        Cu94 1.951       .   S
O92         C95 1.250       .   A
Cu93       Cu94 2.630       .   S
C95        C854 1.540       .   S
C96        C864 1.540       .   S
C97        C737 1.540       .   S
C98        C807 1.540       .   S
O99       Cu107 1.951       .   S
O99        C109 1.250       .   A
O100      Cu107 1.951       .   S
O100       C110 1.250       .   A
O101      Cu107 1.951       .   S
O101       C111 1.250       .   A
O102      Cu107 1.951       .   S
O102       C112 1.250       .   A
O103      Cu108 1.951       .   S
O103       C112 1.250       .   A
O104      Cu108 1.951       .   S
O104       C111 1.251       .   A
O105      Cu108 1.951       .   S
O105       C110 1.250       .   A
O106      Cu108 1.951       .   S
O106       C109 1.250       .   A
Cu107     Cu108 2.630       .   S
C109       C857 1.540       .   S
C110       C884 1.540       .   S
C111       C827 1.540       .   S
C112       C874 1.540       .   S
O113      Cu121 1.951       .   S
O113       C123 1.250       .   A
O114      Cu121 1.951       .   S
O114       C124 1.250       .   A
O115      Cu121 1.951       .   S
O115       C125 1.250       .   A
O116      Cu121 1.951       .   S
O116       C126 1.250       .   A
O117      Cu122 1.951       .   S
O117       C126 1.250       .   A
O118      Cu122 1.951       .   S
O118       C125 1.251       .   A
O119      Cu122 1.951       .   S
O119       C124 1.250       .   A
O120      Cu122 1.951       .   S
O120       C123 1.250       .   A
Cu121     Cu122 2.630       .   S
C123       C757 1.540       .   S
C124       C904 1.540       .   S
C125       C894 1.540       .   S
C126       C914 1.540       .   S
O127      Cu135 1.951       .   S
O127       C137 1.250       .   A
O128      Cu135 1.951       .   S
O128       C138 1.250       .   A
O129      Cu135 1.951       .   S
O129       C139 1.250       .   A
O130      Cu135 1.951       .   S
O130       C140 1.250       .   A
O131      Cu136 1.951       .   S
O131       C140 1.250       .   A
O132      Cu136 1.951       .   S
O132       C139 1.251       .   A
O133      Cu136 1.951       .   S
O133       C138 1.250       .   A
O134      Cu136 1.951       .   S
O134       C137 1.250       .   A
Cu135     Cu136 2.630       .   S
C137       C897 1.540       .   S
C138       C934 1.540       .   S
C139       C924 1.540       .   S
C140       C944 1.540       .   S
O141      Cu149 1.951       .   S
O141       C151 1.250       .   A
O142      Cu149 1.951       .   S
O142       C152 1.250       .   A
O143      Cu149 1.951       .   S
O143       C153 1.250       .   A
O144      Cu149 1.951       .   S
O144       C154 1.250       .   A
O145      Cu150 1.951       .   S
O145       C154 1.250       .   A
O146      Cu150 1.951       .   S
O146       C153 1.251       .   A
O147      Cu150 1.951       .   S
O147       C152 1.250       .   A
O148      Cu150 1.951       .   S
O148       C151 1.250       .   A
Cu149     Cu150 2.630       .   S
C151       C964 1.540       .   S
C152       C954 1.540       .   S
C153       C707 1.540       .   S
C154       C907 1.540       .   S
O155      Cu163 1.951       .   S
O155       C165 1.250       .   A
O156      Cu163 1.951       .   S
O156       C166 1.250       .   A
O157      Cu163 1.951       .   S
O157       C167 1.250       .   A
O158      Cu163 1.951       .   S
O158       C168 1.250       .   A
O159      Cu164 1.951       .   S
O159       C168 1.250       .   A
O160      Cu164 1.951       .   S
O160       C167 1.251       .   A
O161      Cu164 1.951       .   S
O161       C166 1.250       .   A
O162      Cu164 1.951       .   S
O162       C165 1.250       .   A
Cu163     Cu164 2.630       .   S
C165       C984 1.540       .   S
C166       C957 1.540       .   S
C167       C927 1.540       .   S
C168       C974 1.540       .   S
O169      Cu177 1.951       .   S
O169       C179 1.250       .   A
O170      Cu177 1.951       .   S
O170       C180 1.250       .   A
O171      Cu177 1.951       .   S
O171       C181 1.250       .   A
O172      Cu177 1.951       .   S
O172       C182 1.250       .   A
O173      Cu178 1.951       .   S
O173       C182 1.250       .   A
O174      Cu178 1.951       .   S
O174       C181 1.251       .   A
O175      Cu178 1.951       .   S
O175       C180 1.250       .   A
O176      Cu178 1.951       .   S
O176       C179 1.250       .   A
Cu177     Cu178 2.630       .   S
C179       C994 1.540       .   S
C180      C1014 1.540       .   S
C181       C777 1.540       .   S
C182      C1004 1.540       .   S
O183      Cu191 1.951       .   S
O183       C193 1.250       .   A
O184      Cu191 1.951       .   S
O184       C194 1.250       .   A
O185      Cu191 1.951       .   S
O185       C195 1.250       .   A
O186      Cu191 1.951       .   S
O186       C196 1.250       .   A
O187      Cu192 1.951       .   S
O187       C196 1.250       .   A
O188      Cu192 1.951       .   S
O188       C195 1.251       .   A
O189      Cu192 1.951       .   S
O189       C194 1.250       .   A
O190      Cu192 1.951       .   S
O190       C193 1.250       .   A
Cu191     Cu192 2.630       .   S
C193      C1024 1.540       .   S
C194      C1044 1.540       .   S
C195       C997 1.540       .   S
C196      C1034 1.540       .   S
O197      Cu205 1.951       .   S
O197       C207 1.250       .   A
O198      Cu205 1.951       .   S
O198       C208 1.250       .   A
O199      Cu205 1.951       .   S
O199       C209 1.250       .   A
O200      Cu205 1.951       .   S
O200       C210 1.250       .   A
O201      Cu206 1.951       .   S
O201       C210 1.250       .   A
O202      Cu206 1.951       .   S
O202       C209 1.251       .   A
O203      Cu206 1.951       .   S
O203       C208 1.250       .   A
O204      Cu206 1.951       .   S
O204       C207 1.250       .   A
Cu205     Cu206 2.630       .   S
C207      C1067 1.540       .   S
C208      C1054 1.540       .   S
C209       C767 1.540       .   S
C210      C1007 1.540       .   S
O211      Cu219 1.951       .   S
O211       C221 1.250       .   A
O212      Cu219 1.951       .   S
O212       C222 1.250       .   A
O213      Cu219 1.951       .   S
O213       C223 1.250       .   A
O214      Cu219 1.951       .   S
O214       C224 1.250       .   A
O215      Cu220 1.951       .   S
O215       C224 1.250       .   A
O216      Cu220 1.951       .   S
O216       C223 1.251       .   A
O217      Cu220 1.951       .   S
O217       C222 1.250       .   A
O218      Cu220 1.951       .   S
O218       C221 1.250       .   A
Cu219     Cu220 2.630       .   S
C221      C1057 1.540       .   S
C222      C1084 1.540       .   S
C223      C1027 1.540       .   S
C224      C1074 1.540       .   S
O225      Cu233 1.951       .   S
O225       C235 1.250       .   A
O226      Cu233 1.951       .   S
O226       C236 1.250       .   A
O227      Cu233 1.951       .   S
O227       C237 1.250       .   A
O228      Cu233 1.951       .   S
O228       C238 1.250       .   A
O229      Cu234 1.951       .   S
O229       C238 1.250       .   A
O230      Cu234 1.951       .   S
O230       C237 1.251       .   A
O231      Cu234 1.951       .   S
O231       C236 1.250       .   A
O232      Cu234 1.951       .   S
O232       C235 1.250       .   A
Cu233     Cu234 2.630       .   S
C235       C727 1.540       .   S
C236      C1104 1.540       .   S
C237      C1114 1.540       .   S
C238      C1094 1.540       .   S
O239      Cu247 1.951       .   S
O239       C249 1.250       .   A
O240      Cu247 1.951       .   S
O240       C250 1.250       .   A
O241      Cu247 1.951       .   S
O241       C251 1.250       .   A
O242      Cu247 1.951       .   S
O242       C252 1.250       .   A
O243      Cu248 1.951       .   S
O243       C252 1.250       .   A
O244      Cu248 1.951       .   S
O244       C251 1.251       .   A
O245      Cu248 1.951       .   S
O245       C250 1.250       .   A
O246      Cu248 1.951       .   S
O246       C249 1.250       .   A
Cu247     Cu248 2.630       .   S
C249      C1124 1.540       .   S
C250      C1144 1.540       .   S
C251      C1097 1.540       .   S
C252      C1134 1.540       .   S
O253      Cu261 1.951       .   S
O253       C263 1.250       .   A
O254      Cu261 1.951       .   S
O254       C264 1.250       .   A
O255      Cu261 1.951       .   S
O255       C265 1.250       .   A
O256      Cu261 1.951       .   S
O256       C266 1.250       .   A
O257      Cu262 1.951       .   S
O257       C266 1.250       .   A
O258      Cu262 1.951       .   S
O258       C265 1.251       .   A
O259      Cu262 1.951       .   S
O259       C264 1.250       .   A
O260      Cu262 1.951       .   S
O260       C263 1.250       .   A
Cu261     Cu262 2.630       .   S
C263      C1127 1.540       .   S
C264      C1164 1.540       .   S
C265      C1154 1.540       .   S
C266      C1174 1.540       .   S
O267      Cu275 1.951       .   S
O267       C277 1.250       .   A
O268      Cu275 1.951       .   S
O268       C278 1.250       .   A
O269      Cu275 1.951       .   S
O269       C279 1.250       .   A
O270      Cu275 1.951       .   S
O270       C280 1.250       .   A
O271      Cu276 1.951       .   S
O271       C280 1.250       .   A
O272      Cu276 1.951       .   S
O272       C279 1.251       .   A
O273      Cu276 1.951       .   S
O273       C278 1.250       .   A
O274      Cu276 1.951       .   S
O274       C277 1.250       .   A
Cu275     Cu276 2.630       .   S
C277       C787 1.540       .   S
C278      C1107 1.540       .   S
C279      C1157 1.540       .   S
C280      C1184 1.540       .   S
O281      Cu289 1.951       .   S
O281       C291 1.250       .   A
O282      Cu289 1.951       .   S
O282       C292 1.250       .   A
O283      Cu289 1.951       .   S
O283       C293 1.250       .   A
O284      Cu289 1.951       .   S
O284       C294 1.250       .   A
O285      Cu290 1.951       .   S
O285       C294 1.250       .   A
O286      Cu290 1.951       .   S
O286       C293 1.251       .   A
O287      Cu290 1.951       .   S
O287       C292 1.250       .   A
O288      Cu290 1.951       .   S
O288       C291 1.250       .   A
Cu289     Cu290 2.630       .   S
C291       C877 1.540       .   S
C292      C1194 1.540       .   S
C293      C1207 1.540       .   S
C294      C1147 1.540       .   S
O295      Cu303 1.951       .   S
O295       C305 1.250       .   A
O296      Cu303 1.951       .   S
O296       C306 1.250       .   A
O297      Cu303 1.951       .   S
O297       C307 1.250       .   A
O298      Cu303 1.951       .   S
O298       C308 1.250       .   A
O299      Cu304 1.951       .   S
O299       C308 1.250       .   A
O300      Cu304 1.951       .   S
O300       C307 1.251       .   A
O301      Cu304 1.951       .   S
O301       C306 1.250       .   A
O302      Cu304 1.951       .   S
O302       C305 1.250       .   A
Cu303     Cu304 2.630       .   S
C305       C847 1.540       .   S
C306      C1197 1.540   1_545   S
C307       C977 1.540       .   S
C308      C1214 1.540       .   S
O309      Cu317 1.951       .   S
O309       C319 1.250       .   A
O310      Cu317 1.951       .   S
O310       C320 1.250       .   A
O311      Cu317 1.951       .   S
O311       C321 1.250       .   A
O312      Cu317 1.951       .   S
O312       C322 1.250       .   A
O313      Cu318 1.951       .   S
O313       C322 1.250       .   A
O314      Cu318 1.951       .   S
O314       C321 1.251       .   A
O315      Cu318 1.951       .   S
O315       C320 1.250       .   A
O316      Cu318 1.951       .   S
O316       C319 1.250       .   A
Cu317     Cu318 2.630       .   S
C319       C947 1.540       .   S
C320      C1217 1.540   1_655   S
C321      C1077 1.540       .   S
C322      C1224 1.540       .   S
O323      Cu331 1.951       .   S
O323       C333 1.250       .   A
O324      Cu331 1.951       .   S
O324       C334 1.250       .   A
O325      Cu331 1.951       .   S
O325       C335 1.250       .   A
O326      Cu331 1.951       .   S
O326       C336 1.250       .   A
O327      Cu332 1.951       .   S
O327       C336 1.250       .   A
O328      Cu332 1.951       .   S
O328       C335 1.251       .   A
O329      Cu332 1.951       .   S
O329       C334 1.250       .   A
O330      Cu332 1.951       .   S
O330       C333 1.250       .   A
Cu331     Cu332 2.630       .   S
C333      C1047 1.540       .   S
C334      C1227 1.540   1_565   S
C335      C1167 1.540       .   S
C336      C1204 1.540   1_655   S
O337      Cu345 1.951       .   S
O337       C347 1.250       .   A
O338      Cu345 1.951       .   S
O338       C348 1.250       .   A
O339      Cu345 1.951       .   S
O339       C349 1.250       .   A
O340      Cu345 1.951       .   S
O340       C350 1.250       .   A
O341      Cu346 1.951       .   S
O341       C350 1.250       .   A
O342      Cu346 1.951       .   S
O342       C349 1.251       .   A
O343      Cu346 1.951       .   S
O343       C348 1.250       .   A
O344      Cu346 1.951       .   S
O344       C347 1.250       .   A
Cu345     Cu346 2.630       .   S
C347      C1254 1.540       .   S
C348      C1244 1.540       .   S
C349       C967 1.540       .   S
C350      C1234 1.540       .   S
O351      Cu359 1.951       .   S
O351       C361 1.250       .   A
O352      Cu359 1.951       .   S
O352       C362 1.250       .   A
O353      Cu359 1.951       .   S
O353       C363 1.250       .   A
O354      Cu359 1.951       .   S
O354       C364 1.250       .   A
O355      Cu360 1.951       .   S
O355       C364 1.250       .   A
O356      Cu360 1.951       .   S
O356       C363 1.251       .   A
O357      Cu360 1.951       .   S
O357       C362 1.250       .   A
O358      Cu360 1.951       .   S
O358       C361 1.250       .   A
Cu359     Cu360 2.630       .   S
C361      C1264 1.540       .   S
C362      C1274 1.540       .   S
C363       C987 1.540       .   S
C364      C1237 1.540   1_556   S
O365      Cu373 1.951       .   S
O365       C375 1.250       .   A
O366      Cu373 1.951       .   S
O366       C376 1.250       .   A
O367      Cu373 1.951       .   S
O367       C377 1.250       .   A
O368      Cu373 1.951       .   S
O368       C378 1.250       .   A
O369      Cu374 1.951       .   S
O369       C378 1.250       .   A
O370      Cu374 1.951       .   S
O370       C377 1.251       .   A
O371      Cu374 1.951       .   S
O371       C376 1.250       .   A
O372      Cu374 1.951       .   S
O372       C375 1.250       .   A
Cu373     Cu374 2.630       .   S
C375      C1137 1.540       .   S
C376      C1284 1.540       .   S
C377      C1294 1.540       .   S
C378      C1267 1.540   1_565   S
O379      Cu387 1.951       .   S
O379       C389 1.250       .   A
O380      Cu387 1.951       .   S
O380       C390 1.250       .   A
O381      Cu387 1.951       .   S
O381       C391 1.250       .   A
O382      Cu387 1.951       .   S
O382       C392 1.250       .   A
O383      Cu388 1.951       .   S
O383       C392 1.250       .   A
O384      Cu388 1.951       .   S
O384       C391 1.251       .   A
O385      Cu388 1.951       .   S
O385       C390 1.250       .   A
O386      Cu388 1.951       .   S
O386       C389 1.250       .   A
Cu387     Cu388 2.630       .   S
C389      C1117 1.540       .   S
C390      C1287 1.540   1_554   S
C391      C1247 1.540   1_565   S
C392      C1304 1.540       .   S
O393      Cu401 1.951       .   S
O393       C403 1.250       .   A
O394      Cu401 1.951       .   S
O394       C404 1.250       .   A
O395      Cu401 1.951       .   S
O395       C405 1.250       .   A
O396      Cu401 1.951       .   S
O396       C406 1.250       .   A
O397      Cu402 1.951       .   S
O397       C406 1.250       .   A
O398      Cu402 1.951       .   S
O398       C405 1.251       .   A
O399      Cu402 1.951       .   S
O399       C404 1.250       .   A
O400      Cu402 1.951       .   S
O400       C403 1.250       .   A
Cu401     Cu402 2.630       .   S
C403      C1324 1.540       .   S
C404      C1334 1.540       .   S
C405      C1064 1.540       .   S
C406      C1314 1.540       .   S
O407      Cu415 1.951       .   S
O407       C417 1.250       .   A
O408      Cu415 1.951       .   S
O408       C418 1.250       .   A
O409      Cu415 1.951       .   S
O409       C419 1.250       .   A
O410      Cu415 1.951       .   S
O410       C420 1.250       .   A
O411      Cu416 1.951       .   S
O411       C420 1.250       .   A
O412      Cu416 1.951       .   S
O412       C419 1.251       .   A
O413      Cu416 1.951       .   S
O413       C418 1.250       .   A
O414      Cu416 1.951       .   S
O414       C417 1.250       .   A
Cu415     Cu416 2.630       .   S
C417      C1344 1.540       .   S
C418      C1354 1.540       .   S
C419      C1087 1.540       .   S
C420      C1317 1.540   1_556   S
O421      Cu429 1.951       .   S
O421       C431 1.250       .   A
O422      Cu429 1.951       .   S
O422       C432 1.250       .   A
O423      Cu429 1.951       .   S
O423       C433 1.250       .   A
O424      Cu429 1.951       .   S
O424       C434 1.250       .   A
O425      Cu430 1.951       .   S
O425       C434 1.250       .   A
O426      Cu430 1.951       .   S
O426       C433 1.251       .   A
O427      Cu430 1.951       .   S
O427       C432 1.250       .   A
O428      Cu430 1.951       .   S
O428       C431 1.250       .   A
Cu429     Cu430 2.630       .   S
C431       C817 1.540       .   S
C432      C1364 1.540       .   S
C433      C1374 1.540       .   S
C434      C1327 1.540   1_455   S
O435      Cu443 1.951       .   S
O435       C445 1.250       .   A
O436      Cu443 1.951       .   S
O436       C446 1.250       .   A
O437      Cu443 1.951       .   S
O437       C447 1.250       .   A
O438      Cu443 1.951       .   S
O438       C448 1.250       .   A
O439      Cu444 1.951       .   S
O439       C448 1.250       .   A
O440      Cu444 1.951       .   S
O440       C447 1.251       .   A
O441      Cu444 1.951       .   S
O441       C446 1.250       .   A
O442      Cu444 1.951       .   S
O442       C445 1.250       .   A
Cu443     Cu444 2.630       .   S
C445       C837 1.540       .   S
C446      C1367 1.540   1_556   S
C447      C1347 1.540   1_455   S
C448      C1384 1.540       .   S
O449      Cu457 1.951       .   S
O449       C459 1.250       .   A
O450      Cu457 1.951       .   S
O450       C460 1.250       .   A
O451      Cu457 1.951       .   S
O451       C461 1.250       .   A
O452      Cu457 1.951       .   S
O452       C462 1.250       .   A
O453      Cu458 1.951       .   S
O453       C462 1.250       .   A
O454      Cu458 1.951       .   S
O454       C461 1.251       .   A
O455      Cu458 1.951       .   S
O455       C460 1.250       .   A
O456      Cu458 1.951       .   S
O456       C459 1.250       .   A
Cu457     Cu458 2.630       .   S
C459      C1187 1.540       .   S
C460      C1394 1.540       .   S
C461      C1404 1.540       .   S
C462      C1414 1.540       .   S
O463      Cu471 1.951       .   S
O463       C473 1.250       .   A
O464      Cu471 1.951       .   S
O464       C474 1.250       .   A
O465      Cu471 1.951       .   S
O465       C475 1.250       .   A
O466      Cu471 1.951       .   S
O466       C476 1.250       .   A
O467      Cu472 1.951       .   S
O467       C476 1.250       .   A
O468      Cu472 1.951       .   S
O468       C475 1.251       .   A
O469      Cu472 1.951       .   S
O469       C474 1.250       .   A
O470      Cu472 1.951       .   S
O470       C473 1.250       .   A
Cu471     Cu472 2.630       .   S
C473      C1397 1.540   1_556   S
C474      C1177 1.540       .   S
C475      C1424 1.540       .   S
C476      C1434 1.540       .   S
O477      Cu485 1.951       .   S
O477       C487 1.250       .   A
O478      Cu485 1.951       .   S
O478       C488 1.250       .   A
O479      Cu485 1.951       .   S
O479       C489 1.250       .   A
O480      Cu485 1.951       .   S
O480       C490 1.250       .   A
O481      Cu486 1.951       .   S
O481       C490 1.250       .   A
O482      Cu486 1.951       .   S
O482       C489 1.251       .   A
O483      Cu486 1.951       .   S
O483       C488 1.250       .   A
O484      Cu486 1.951       .   S
O484       C487 1.250       .   A
Cu485     Cu486 2.630       .   S
C487      C1427 1.540   1_545   S
C488      C1454 1.540       .   S
C489       C937 1.540       .   S
C490      C1444 1.540       .   S
O491      Cu499 1.951       .   S
O491       C501 1.250       .   A
O492      Cu499 1.951       .   S
O492       C502 1.250       .   A
O493      Cu499 1.951       .   S
O493       C503 1.250       .   A
O494      Cu499 1.951       .   S
O494       C504 1.250       .   A
O495      Cu500 1.951       .   S
O495       C504 1.250       .   A
O496      Cu500 1.951       .   S
O496       C503 1.251       .   A
O497      Cu500 1.951       .   S
O497       C502 1.250       .   A
O498      Cu500 1.951       .   S
O498       C501 1.250       .   A
Cu499     Cu500 2.630       .   S
C501      C1407 1.540   1_545   S
C502      C1464 1.540       .   S
C503      C1447 1.540   1_554   S
C504       C917 1.540       .   S
O505      Cu513 1.951       .   S
O505       C515 1.250       .   A
O506      Cu513 1.951       .   S
O506       C516 1.250       .   A
O507      Cu513 1.951       .   S
O507       C517 1.250       .   A
O508      Cu513 1.951       .   S
O508       C518 1.250       .   A
O509      Cu514 1.951       .   S
O509       C518 1.250       .   A
O510      Cu514 1.951       .   S
O510       C517 1.251       .   A
O511      Cu514 1.951       .   S
O511       C516 1.250       .   A
O512      Cu514 1.951       .   S
O512       C515 1.250       .   A
Cu513     Cu514 2.630       .   S
C515      C1477 1.540       .   S
C516       C867 1.540       .   S
C517      C1484 1.540       .   S
C518      C1494 1.540       .   S
O519      Cu527 1.951       .   S
O519       C529 1.250       .   A
O520      Cu527 1.951       .   S
O520       C530 1.250       .   A
O521      Cu527 1.951       .   S
O521       C531 1.250       .   A
O522      Cu527 1.951       .   S
O522       C532 1.250       .   A
O523      Cu528 1.951       .   S
O523       C532 1.250       .   A
O524      Cu528 1.951       .   S
O524       C531 1.251       .   A
O525      Cu528 1.951       .   S
O525       C530 1.250       .   A
O526      Cu528 1.951       .   S
O526       C529 1.250       .   A
Cu527     Cu528 2.630       .   S
C529       C887 1.540       .   S
C530      C1474 1.540   1_556   S
C531      C1504 1.540       .   S
C532      C1514 1.540       .   S
O533      Cu541 1.951       .   S
O533       C543 1.250       .   A
O534      Cu541 1.951       .   S
O534       C544 1.250       .   A
O535      Cu541 1.951       .   S
O535       C545 1.250       .   A
O536      Cu541 1.951       .   S
O536       C546 1.250       .   A
O537      Cu542 1.951       .   S
O537       C546 1.250       .   A
O538      Cu542 1.951       .   S
O538       C545 1.251       .   A
O539      Cu542 1.951       .   S
O539       C544 1.250       .   A
O540      Cu542 1.951       .   S
O540       C543 1.250       .   A
Cu541     Cu542 2.630       .   S
C543      C1507 1.540   1_655   S
C544      C1534 1.540       .   S
C545      C1037 1.540       .   S
C546      C1524 1.540       .   S
O547      Cu555 1.951       .   S
O547       C557 1.250       .   A
O548      Cu555 1.951       .   S
O548       C558 1.250       .   A
O549      Cu555 1.951       .   S
O549       C559 1.250       .   A
O550      Cu555 1.951       .   S
O550       C560 1.250       .   A
O551      Cu556 1.951       .   S
O551       C560 1.250       .   A
O552      Cu556 1.951       .   S
O552       C559 1.251       .   A
O553      Cu556 1.951       .   S
O553       C558 1.250       .   A
O554      Cu556 1.951       .   S
O554       C557 1.250       .   A
Cu555     Cu556 2.630       .   S
C557      C1487 1.540   1_655   S
C558      C1544 1.540       .   S
C559      C1017 1.540       .   S
C560      C1527 1.540   1_554   S
O561      Cu569 1.951       .   S
O561       C571 1.250       .   A
O562      Cu569 1.951       .   S
O562       C572 1.250       .   A
O563      Cu569 1.951       .   S
O563       C573 1.250       .   A
O564      Cu569 1.951       .   S
O564       C574 1.250       .   A
O565      Cu570 1.951       .   S
O565       C574 1.250       .   A
O566      Cu570 1.951       .   S
O566       C573 1.251       .   A
O567      Cu570 1.951       .   S
O567       C572 1.250       .   A
O568      Cu570 1.951       .   S
O568       C571 1.250       .   A
Cu569     Cu570 2.630       .   S
C571      C1257 1.540       .   S
C572      C1554 1.540       .   S
C573      C1377 1.540       .   S
C574      C1564 1.540       .   S
O575      Cu583 1.951       .   S
O575       C585 1.250       .   A
O576      Cu583 1.951       .   S
O576       C586 1.250       .   A
O577      Cu583 1.951       .   S
O577       C587 1.250       .   A
O578      Cu583 1.951       .   S
O578       C588 1.250       .   A
O579      Cu584 1.951       .   S
O579       C588 1.250       .   A
O580      Cu584 1.951       .   S
O580       C587 1.251       .   A
O581      Cu584 1.951       .   S
O581       C586 1.250       .   A
O582      Cu584 1.951       .   S
O582       C585 1.250       .   A
Cu583     Cu584 2.630       .   S
C585      C1307 1.540       .   S
C586      C1557 1.540       .   S
C587      C1497 1.540       .   S
C588      C1574 1.540       .   S
O589      Cu597 1.951       .   S
O589       C599 1.250       .   A
O590      Cu597 1.951       .   S
O590       C600 1.250       .   A
O591      Cu597 1.951       .   S
O591       C601 1.250       .   A
O592      Cu597 1.951       .   S
O592       C602 1.250       .   A
O593      Cu598 1.951       .   S
O593       C602 1.250       .   A
O594      Cu598 1.951       .   S
O594       C601 1.251       .   A
O595      Cu598 1.951       .   S
O595       C600 1.250       .   A
O596      Cu598 1.951       .   S
O596       C599 1.250       .   A
Cu597     Cu598 2.630       .   S
C599      C1417 1.540       .   S
C600      C1584 1.540       .   S
C601      C1547 1.540       .   S
C602      C1577 1.540       .   S
O603      Cu611 1.951       .   S
O603       C613 1.250       .   A
O604      Cu611 1.951       .   S
O604       C614 1.250       .   A
O605      Cu611 1.951       .   S
O605       C615 1.250       .   A
O606      Cu611 1.951       .   S
O606       C616 1.250       .   A
O607      Cu612 1.951       .   S
O607       C616 1.250       .   A
O608      Cu612 1.951       .   S
O608       C615 1.251       .   A
O609      Cu612 1.951       .   S
O609       C614 1.250       .   A
O610      Cu612 1.951       .   S
O610       C613 1.250       .   A
Cu611     Cu612 2.630       .   S
C613      C1337 1.540       .   S
C614      C1567 1.540       .   S
C615      C1467 1.540       .   S
C616      C1587 1.540       .   S
O617      Cu625 1.951       .   S
O617       C627 1.250       .   A
O618      Cu625 1.951       .   S
O618       C628 1.250       .   A
O619      Cu625 1.951       .   S
O619       C629 1.250       .   A
O620      Cu625 1.951       .   S
O620       C630 1.250       .   A
O621      Cu626 1.951       .   S
O621       C630 1.250       .   A
O622      Cu626 1.951       .   S
O622       C629 1.251       .   A
O623      Cu626 1.951       .   S
O623       C628 1.250       .   A
O624      Cu626 1.951       .   S
O624       C627 1.250       .   A
Cu625     Cu626 2.630       .   S
C627      C1517 1.540       .   S
C628      C1594 1.540       .   S
C629      C1297 1.540       .   S
C630      C1604 1.540       .   S
O631      Cu639 1.951       .   S
O631       C641 1.250       .   A
O632      Cu639 1.951       .   S
O632       C642 1.250       .   A
O633      Cu639 1.951       .   S
O633       C643 1.250       .   A
O634      Cu639 1.951       .   S
O634       C644 1.250       .   A
O635      Cu640 1.951       .   S
O635       C644 1.250       .   A
O636      Cu640 1.951       .   S
O636       C643 1.251       .   A
O637      Cu640 1.951       .   S
O637       C642 1.250       .   A
O638      Cu640 1.951       .   S
O638       C641 1.250       .   A
Cu639     Cu640 2.630       .   S
C641      C1537 1.540       .   S
C642      C1597 1.540       .   S
C643      C1437 1.540       .   S
C644      C1614 1.540       .   S
O645      Cu653 1.951       .   S
O645       C655 1.250       .   A
O646      Cu653 1.951       .   S
O646       C656 1.250       .   A
O647      Cu653 1.951       .   S
O647       C657 1.250       .   A
O648      Cu653 1.951       .   S
O648       C658 1.250       .   A
O649      Cu654 1.951       .   S
O649       C658 1.250       .   A
O650      Cu654 1.951       .   S
O650       C657 1.251       .   A
O651      Cu654 1.951       .   S
O651       C656 1.250       .   A
O652      Cu654 1.951       .   S
O652       C655 1.250       .   A
Cu653     Cu654 2.630       .   S
C655      C1457 1.540       .   S
C656      C1617 1.540       .   S
C657      C1357 1.540       .   S
C658      C1624 1.540       .   S
O659      Cu667 1.951       .   S
O659       C669 1.250       .   A
O660      Cu667 1.951       .   S
O660       C670 1.250       .   A
O661      Cu667 1.951       .   S
O661       C671 1.250       .   A
O662      Cu667 1.951       .   S
O662       C672 1.250       .   A
O663      Cu668 1.951       .   S
O663       C672 1.250       .   A
O664      Cu668 1.951       .   S
O664       C671 1.251       .   A
O665      Cu668 1.951       .   S
O665       C670 1.250       .   A
O666      Cu668 1.951       .   S
O666       C669 1.250       .   A
Cu667     Cu668 2.630       .   S
C669      C1277 1.540       .   S
C670      C1607 1.540       .   S
C671      C1627 1.540       .   S
C672      C1387 1.540       .   S
C1623     C1624 1.540       .   A
C1623     C1628 1.540       .   A
C1623     H1629 1.140       .   S
C1624     C1625 1.540       .   A
C1625     C1626 1.540       .   A
C1625     H1630 1.140       .   S
C1626     C1627 1.540       .   A
C1626     H1631 1.140       .   S
C1627     C1628 1.540       .   A
C1628     H1632 1.140       .   S
C1613     C1614 1.540       .   A
C1613     C1618 1.540       .   A
C1613     H1619 1.140       .   S
C1614     C1615 1.540       .   A
C1615     C1616 1.540       .   A
C1615     H1620 1.140       .   S
C1616     C1617 1.540       .   A
C1616     H1621 1.140       .   S
C1617     C1618 1.540       .   A
C1618     H1622 1.140       .   S
C1603     C1604 1.540       .   A
C1603     C1608 1.540       .   A
C1603     H1609 1.140       .   S
C1604     C1605 1.540       .   A
C1605     C1606 1.540       .   A
C1605     H1610 1.140       .   S
C1606     C1607 1.540       .   A
C1606     H1611 1.140       .   S
C1607     C1608 1.540       .   A
C1608     H1612 1.140       .   S
C1593     C1594 1.540       .   A
C1593     C1598 1.540       .   A
C1593     H1599 1.140       .   S
C1594     C1595 1.540       .   A
C1595     C1596 1.540       .   A
C1595     H1600 1.140       .   S
C1596     C1597 1.540       .   A
C1596     H1601 1.140       .   S
C1597     C1598 1.540       .   A
C1598     H1602 1.140       .   S
C1583     C1584 1.540       .   A
C1583     C1588 1.540       .   A
C1583     H1589 1.140       .   S
C1584     C1585 1.540       .   A
C1585     C1586 1.540       .   A
C1585     H1590 1.140       .   S
C1586     C1587 1.540       .   A
C1586     H1591 1.140       .   S
C1587     C1588 1.540       .   A
C1588     H1592 1.140       .   S
C1573     C1574 1.540       .   A
C1573     C1578 1.540       .   A
C1573     H1579 1.140       .   S
C1574     C1575 1.540       .   A
C1575     C1576 1.540       .   A
C1575     H1580 1.140       .   S
C1576     C1577 1.540       .   A
C1576     H1581 1.140       .   S
C1577     C1578 1.540       .   A
C1578     H1582 1.140       .   S
C1563     C1564 1.540       .   A
C1563     C1568 1.540       .   A
C1563     H1569 1.140       .   S
C1564     C1565 1.540       .   A
C1565     C1566 1.540       .   A
C1565     H1570 1.140       .   S
C1566     C1567 1.540       .   A
C1566     H1571 1.140       .   S
C1567     C1568 1.540       .   A
C1568     H1572 1.140       .   S
C1553     C1554 1.540       .   A
C1553     C1558 1.540       .   A
C1553     H1559 1.140       .   S
C1554     C1555 1.540       .   A
C1555     C1556 1.540       .   A
C1555     H1560 1.140       .   S
C1556     C1557 1.540       .   A
C1556     H1561 1.140       .   S
C1557     C1558 1.540       .   A
C1558     H1562 1.140       .   S
C1543     C1544 1.540       .   A
C1543     C1548 1.540       .   A
C1543     H1549 1.140       .   S
C1544     C1545 1.540       .   A
C1545     C1546 1.540       .   A
C1545     H1550 1.140       .   S
C1546     C1547 1.540       .   A
C1546     H1551 1.140       .   S
C1547     C1548 1.540       .   A
C1548     H1552 1.140       .   S
C1533     C1534 1.540       .   A
C1533     C1538 1.540       .   A
C1533     H1539 1.140       .   S
C1534     C1535 1.540       .   A
C1535     C1536 1.540       .   A
C1535     H1540 1.140       .   S
C1536     C1537 1.540       .   A
C1536     H1541 1.140       .   S
C1537     C1538 1.540       .   A
C1538     H1542 1.140       .   S
C1523     C1524 1.540       .   A
C1523     C1528 1.540       .   A
C1523     H1529 1.140       .   S
C1524     C1525 1.540       .   A
C1525     C1526 1.540       .   A
C1525     H1530 1.140       .   S
C1526     C1527 1.540       .   A
C1526     H1531 1.140       .   S
C1527     C1528 1.540       .   A
C1528     H1532 1.140       .   S
C1513     C1514 1.540       .   A
C1513     C1518 1.540       .   A
C1513     H1519 1.140       .   S
C1514     C1515 1.540       .   A
C1515     C1516 1.540       .   A
C1515     H1520 1.140       .   S
C1516     C1517 1.540       .   A
C1516     H1521 1.140       .   S
C1517     C1518 1.540       .   A
C1518     H1522 1.140       .   S
C1503     C1504 1.540       .   A
C1503     C1508 1.540       .   A
C1503     H1509 1.140       .   S
C1504     C1505 1.540       .   A
C1505     C1506 1.540       .   A
C1505     H1510 1.140       .   S
C1506     C1507 1.540       .   A
C1506     H1511 1.140       .   S
C1507     C1508 1.540       .   A
C1508     H1512 1.140       .   S
C1493     C1494 1.540       .   A
C1493     C1498 1.540       .   A
C1493     H1499 1.140       .   S
C1494     C1495 1.540       .   A
C1495     C1496 1.540       .   A
C1495     H1500 1.140       .   S
C1496     C1497 1.540       .   A
C1496     H1501 1.140       .   S
C1497     C1498 1.540       .   A
C1498     H1502 1.140       .   S
C1483     C1484 1.540       .   A
C1483     C1488 1.540       .   A
C1483     H1489 1.140       .   S
C1484     C1485 1.540       .   A
C1485     C1486 1.540       .   A
C1485     H1490 1.140       .   S
C1486     C1487 1.540       .   A
C1486     H1491 1.140       .   S
C1487     C1488 1.540       .   A
C1488     H1492 1.140       .   S
C1473     C1474 1.540       .   A
C1473     C1478 1.540       .   A
C1473     H1479 1.140       .   S
C1474     C1475 1.540       .   A
C1475     C1476 1.540       .   A
C1475     H1480 1.140       .   S
C1476     C1477 1.540       .   A
C1476     H1481 1.140       .   S
C1477     C1478 1.540       .   A
C1478     H1482 1.140       .   S
C1463     C1464 1.540       .   A
C1463     C1468 1.540       .   A
C1463     H1469 1.140       .   S
C1464     C1465 1.540       .   A
C1465     C1466 1.540       .   A
C1465     H1470 1.140       .   S
C1466     C1467 1.540       .   A
C1466     H1471 1.140       .   S
C1467     C1468 1.540       .   A
C1468     H1472 1.140       .   S
C1453     C1454 1.540       .   A
C1453     C1458 1.540       .   A
C1453     H1459 1.140       .   S
C1454     C1455 1.540       .   A
C1455     C1456 1.540       .   A
C1455     H1460 1.140       .   S
C1456     C1457 1.540       .   A
C1456     H1461 1.140       .   S
C1457     C1458 1.540       .   A
C1458     H1462 1.140       .   S
C1443     C1444 1.540       .   A
C1443     C1448 1.540       .   A
C1443     H1449 1.140       .   S
C1444     C1445 1.540       .   A
C1445     C1446 1.540       .   A
C1445     H1450 1.140       .   S
C1446     C1447 1.540       .   A
C1446     H1451 1.140       .   S
C1447     C1448 1.540       .   A
C1448     H1452 1.140       .   S
C1433     C1434 1.540       .   A
C1433     C1438 1.540       .   A
C1433     H1439 1.140       .   S
C1434     C1435 1.540       .   A
C1435     C1436 1.540       .   A
C1435     H1440 1.140       .   S
C1436     C1437 1.540       .   A
C1436     H1441 1.140       .   S
C1437     C1438 1.540       .   A
C1438     H1442 1.140       .   S
C1423     C1424 1.540       .   A
C1423     C1428 1.540       .   A
C1423     H1429 1.140       .   S
C1424     C1425 1.540       .   A
C1425     C1426 1.540       .   A
C1425     H1430 1.140       .   S
C1426     C1427 1.540       .   A
C1426     H1431 1.140       .   S
C1427     C1428 1.540       .   A
C1428     H1432 1.140       .   S
C1413     C1414 1.540       .   A
C1413     C1418 1.540       .   A
C1413     H1419 1.140       .   S
C1414     C1415 1.540       .   A
C1415     C1416 1.540       .   A
C1415     H1420 1.140       .   S
C1416     C1417 1.540       .   A
C1416     H1421 1.140       .   S
C1417     C1418 1.540       .   A
C1418     H1422 1.140       .   S
C1403     C1404 1.540       .   A
C1403     C1408 1.540       .   A
C1403     H1409 1.140       .   S
C1404     C1405 1.540       .   A
C1405     C1406 1.540       .   A
C1405     H1410 1.140       .   S
C1406     C1407 1.540       .   A
C1406     H1411 1.140       .   S
C1407     C1408 1.540       .   A
C1408     H1412 1.140       .   S
C1393     C1394 1.540       .   A
C1393     C1398 1.540       .   A
C1393     H1399 1.140       .   S
C1394     C1395 1.540       .   A
C1395     C1396 1.540       .   A
C1395     H1400 1.140       .   S
C1396     C1397 1.540       .   A
C1396     H1401 1.140       .   S
C1397     C1398 1.540       .   A
C1398     H1402 1.140       .   S
C1383     C1384 1.540       .   A
C1383     C1388 1.540       .   A
C1383     H1389 1.140       .   S
C1384     C1385 1.540       .   A
C1385     C1386 1.540       .   A
C1385     H1390 1.140       .   S
C1386     C1387 1.540       .   A
C1386     H1391 1.140       .   S
C1387     C1388 1.540       .   A
C1388     H1392 1.140       .   S
C1373     C1374 1.540       .   A
C1373     C1378 1.540       .   A
C1373     H1379 1.140       .   S
C1374     C1375 1.540       .   A
C1375     C1376 1.540       .   A
C1375     H1380 1.140       .   S
C1376     C1377 1.540       .   A
C1376     H1381 1.140       .   S
C1377     C1378 1.540       .   A
C1378     H1382 1.140       .   S
C1363     C1364 1.540       .   A
C1363     C1368 1.540       .   A
C1363     H1369 1.140       .   S
C1364     C1365 1.540       .   A
C1365     C1366 1.540       .   A
C1365     H1370 1.140       .   S
C1366     C1367 1.540       .   A
C1366     H1371 1.140       .   S
C1367     C1368 1.540       .   A
C1368     H1372 1.140       .   S
C1353     C1354 1.540       .   A
C1353     C1358 1.540       .   A
C1353     H1359 1.140       .   S
C1354     C1355 1.540       .   A
C1355     C1356 1.540       .   A
C1355     H1360 1.140       .   S
C1356     C1357 1.540       .   A
C1356     H1361 1.140       .   S
C1357     C1358 1.540       .   A
C1358     H1362 1.140       .   S
C1343     C1344 1.540       .   A
C1343     C1348 1.540       .   A
C1343     H1349 1.140       .   S
C1344     C1345 1.540       .   A
C1345     C1346 1.540       .   A
C1345     H1350 1.140       .   S
C1346     C1347 1.540       .   A
C1346     H1351 1.140       .   S
C1347     C1348 1.540       .   A
C1348     H1352 1.140       .   S
C1333     C1334 1.540       .   A
C1333     C1338 1.540       .   A
C1333     H1339 1.140       .   S
C1334     C1335 1.540       .   A
C1335     C1336 1.540       .   A
C1335     H1340 1.140       .   S
C1336     C1337 1.540       .   A
C1336     H1341 1.140       .   S
C1337     C1338 1.540       .   A
C1338     H1342 1.140       .   S
C1323     C1324 1.540       .   A
C1323     C1328 1.540       .   A
C1323     H1329 1.140       .   S
C1324     C1325 1.540       .   A
C1325     C1326 1.540       .   A
C1325     H1330 1.140       .   S
C1326     C1327 1.540       .   A
C1326     H1331 1.140       .   S
C1327     C1328 1.540       .   A
C1328     H1332 1.140       .   S
C1313     C1314 1.540       .   A
C1313     C1318 1.540       .   A
C1313     H1319 1.140       .   S
C1314     C1315 1.540       .   A
C1315     C1316 1.540       .   A
C1315     H1320 1.140       .   S
C1316     C1317 1.540       .   A
C1316     H1321 1.140       .   S
C1317     C1318 1.540       .   A
C1318     H1322 1.140       .   S
C1303     C1304 1.540       .   A
C1303     C1308 1.540       .   A
C1303     H1309 1.140       .   S
C1304     C1305 1.540       .   A
C1305     C1306 1.540       .   A
C1305     H1310 1.140       .   S
C1306     C1307 1.540       .   A
C1306     H1311 1.140       .   S
C1307     C1308 1.540       .   A
C1308     H1312 1.140       .   S
C1293     C1294 1.540       .   A
C1293     C1298 1.540       .   A
C1293     H1299 1.140       .   S
C1294     C1295 1.540       .   A
C1295     C1296 1.540       .   A
C1295     H1300 1.140       .   S
C1296     C1297 1.540       .   A
C1296     H1301 1.140       .   S
C1297     C1298 1.540       .   A
C1298     H1302 1.140       .   S
C1283     C1284 1.540       .   A
C1283     C1288 1.540       .   A
C1283     H1289 1.140       .   S
C1284     C1285 1.540       .   A
C1285     C1286 1.540       .   A
C1285     H1290 1.140       .   S
C1286     C1287 1.540       .   A
C1286     H1291 1.140       .   S
C1287     C1288 1.540       .   A
C1288     H1292 1.140       .   S
C1273     C1274 1.540       .   A
C1273     C1278 1.540       .   A
C1273     H1279 1.140       .   S
C1274     C1275 1.540       .   A
C1275     C1276 1.540       .   A
C1275     H1280 1.140       .   S
C1276     C1277 1.540       .   A
C1276     H1281 1.140       .   S
C1277     C1278 1.540       .   A
C1278     H1282 1.140       .   S
C1263     C1264 1.540       .   A
C1263     C1268 1.540       .   A
C1263     H1269 1.140       .   S
C1264     C1265 1.540       .   A
C1265     C1266 1.540       .   A
C1265     H1270 1.140       .   S
C1266     C1267 1.540       .   A
C1266     H1271 1.140       .   S
C1267     C1268 1.540       .   A
C1268     H1272 1.140       .   S
C1253     C1254 1.540       .   A
C1253     C1258 1.540       .   A
C1253     H1259 1.140       .   S
C1254     C1255 1.540       .   A
C1255     C1256 1.540       .   A
C1255     H1260 1.140       .   S
C1256     C1257 1.540       .   A
C1256     H1261 1.140       .   S
C1257     C1258 1.540       .   A
C1258     H1262 1.140       .   S
C1243     C1244 1.540       .   A
C1243     C1248 1.540       .   A
C1243     H1249 1.140       .   S
C1244     C1245 1.540       .   A
C1245     C1246 1.540       .   A
C1245     H1250 1.140       .   S
C1246     C1247 1.540       .   A
C1246     H1251 1.140       .   S
C1247     C1248 1.540       .   A
C1248     H1252 1.140       .   S
C1233     C1234 1.540       .   A
C1233     C1238 1.540       .   A
C1233     H1239 1.140       .   S
C1234     C1235 1.540       .   A
C1235     C1236 1.540       .   A
C1235     H1240 1.140       .   S
C1236     C1237 1.540       .   A
C1236     H1241 1.140       .   S
C1237     C1238 1.540       .   A
C1238     H1242 1.140       .   S
C1223     C1224 1.540       .   A
C1223     C1228 1.540       .   A
C1223     H1229 1.140       .   S
C1224     C1225 1.540       .   A
C1225     C1226 1.540       .   A
C1225     H1230 1.140       .   S
C1226     C1227 1.540       .   A
C1226     H1231 1.140       .   S
C1227     C1228 1.540       .   A
C1228     H1232 1.140       .   S
C1213     C1214 1.540       .   A
C1213     C1218 1.540       .   A
C1213     H1219 1.140       .   S
C1214     C1215 1.540       .   A
C1215     C1216 1.540       .   A
C1215     H1220 1.140       .   S
C1216     C1217 1.540       .   A
C1216     H1221 1.140       .   S
C1217     C1218 1.540       .   A
C1218     H1222 1.140       .   S
C1203     C1204 1.540       .   A
C1203     C1208 1.540       .   A
C1203     H1209 1.140       .   S
C1204     C1205 1.540       .   A
C1205     C1206 1.540       .   A
C1205     H1210 1.140       .   S
C1206     C1207 1.540       .   A
C1206     H1211 1.140       .   S
C1207     C1208 1.540       .   A
C1208     H1212 1.140       .   S
C1193     C1194 1.540       .   A
C1193     C1198 1.540       .   A
C1193     H1199 1.140       .   S
C1194     C1195 1.540       .   A
C1195     C1196 1.540       .   A
C1195     H1200 1.140       .   S
C1196     C1197 1.540       .   A
C1196     H1201 1.140       .   S
C1197     C1198 1.540       .   A
C1198     H1202 1.140       .   S
C1183     C1184 1.540       .   A
C1183     C1188 1.540       .   A
C1183     H1189 1.140       .   S
C1184     C1185 1.540       .   A
C1185     C1186 1.540       .   A
C1185     H1190 1.140       .   S
C1186     C1187 1.540       .   A
C1186     H1191 1.140       .   S
C1187     C1188 1.540       .   A
C1188     H1192 1.140       .   S
C1173     C1174 1.540       .   A
C1173     C1178 1.540       .   A
C1173     H1179 1.140       .   S
C1174     C1175 1.540       .   A
C1175     C1176 1.540       .   A
C1175     H1180 1.140       .   S
C1176     C1177 1.540       .   A
C1176     H1181 1.140       .   S
C1177     C1178 1.540       .   A
C1178     H1182 1.140       .   S
C1163     C1164 1.540       .   A
C1163     C1168 1.540       .   A
C1163     H1169 1.140       .   S
C1164     C1165 1.540       .   A
C1165     C1166 1.540       .   A
C1165     H1170 1.140       .   S
C1166     C1167 1.540       .   A
C1166     H1171 1.140       .   S
C1167     C1168 1.540       .   A
C1168     H1172 1.140       .   S
C1153     C1154 1.540       .   A
C1153     C1158 1.540       .   A
C1153     H1159 1.140       .   S
C1154     C1155 1.540       .   A
C1155     C1156 1.540       .   A
C1155     H1160 1.140       .   S
C1156     C1157 1.540       .   A
C1156     H1161 1.140       .   S
C1157     C1158 1.540       .   A
C1158     H1162 1.140       .   S
C1143     C1144 1.540       .   A
C1143     C1148 1.540       .   A
C1143     H1149 1.140       .   S
C1144     C1145 1.540       .   A
C1145     C1146 1.540       .   A
C1145     H1150 1.140       .   S
C1146     C1147 1.540       .   A
C1146     H1151 1.140       .   S
C1147     C1148 1.540       .   A
C1148     H1152 1.140       .   S
C1133     C1134 1.540       .   A
C1133     C1138 1.540       .   A
C1133     H1139 1.140       .   S
C1134     C1135 1.540       .   A
C1135     C1136 1.540       .   A
C1135     H1140 1.140       .   S
C1136     C1137 1.540       .   A
C1136     H1141 1.140       .   S
C1137     C1138 1.540       .   A
C1138     H1142 1.140       .   S
C1123     C1124 1.540       .   A
C1123     C1128 1.540       .   A
C1123     H1129 1.140       .   S
C1124     C1125 1.540       .   A
C1125     C1126 1.540       .   A
C1125     H1130 1.140       .   S
C1126     C1127 1.540       .   A
C1126     H1131 1.140       .   S
C1127     C1128 1.540       .   A
C1128     H1132 1.140       .   S
C1113     C1114 1.540       .   A
C1113     C1118 1.540       .   A
C1113     H1119 1.140       .   S
C1114     C1115 1.540       .   A
C1115     C1116 1.540       .   A
C1115     H1120 1.140       .   S
C1116     C1117 1.540       .   A
C1116     H1121 1.140       .   S
C1117     C1118 1.540       .   A
C1118     H1122 1.140       .   S
C1103     C1104 1.540       .   A
C1103     C1108 1.540       .   A
C1103     H1109 1.140       .   S
C1104     C1105 1.540       .   A
C1105     C1106 1.540       .   A
C1105     H1110 1.140       .   S
C1106     C1107 1.540       .   A
C1106     H1111 1.140       .   S
C1107     C1108 1.540       .   A
C1108     H1112 1.140       .   S
C1093     C1094 1.540       .   A
C1093     C1098 1.540       .   A
C1093     H1099 1.140       .   S
C1094     C1095 1.540       .   A
C1095     C1096 1.540       .   A
C1095     H1100 1.140       .   S
C1096     C1097 1.540       .   A
C1096     H1101 1.140       .   S
C1097     C1098 1.540       .   A
C1098     H1102 1.140       .   S
C1083     C1084 1.540       .   A
C1083     C1088 1.540       .   A
C1083     H1089 1.140       .   S
C1084     C1085 1.540       .   A
C1085     C1086 1.540       .   A
C1085     H1090 1.140       .   S
C1086     C1087 1.540       .   A
C1086     H1091 1.140       .   S
C1087     C1088 1.540       .   A
C1088     H1092 1.140       .   S
C1073     C1074 1.540       .   A
C1073     C1078 1.540       .   A
C1073     H1079 1.140       .   S
C1074     C1075 1.540       .   A
C1075     C1076 1.540       .   A
C1075     H1080 1.140       .   S
C1076     C1077 1.540       .   A
C1076     H1081 1.140       .   S
C1077     C1078 1.540       .   A
C1078     H1082 1.140       .   S
C1063     C1064 1.540       .   A
C1063     C1068 1.540       .   A
C1063     H1069 1.140       .   S
C1064     C1065 1.540       .   A
C1065     C1066 1.540       .   A
C1065     H1070 1.140       .   S
C1066     C1067 1.540       .   A
C1066     H1071 1.140       .   S
C1067     C1068 1.540       .   A
C1068     H1072 1.140       .   S
C1053     C1054 1.540       .   A
C1053     C1058 1.540       .   A
C1053     H1059 1.140       .   S
C1054     C1055 1.540       .   A
C1055     C1056 1.540       .   A
C1055     H1060 1.140       .   S
C1056     C1057 1.540       .   A
C1056     H1061 1.140       .   S
C1057     C1058 1.540       .   A
C1058     H1062 1.140       .   S
C1043     C1044 1.540       .   A
C1043     C1048 1.540       .   A
C1043     H1049 1.140       .   S
C1044     C1045 1.540       .   A
C1045     C1046 1.540       .   A
C1045     H1050 1.140       .   S
C1046     C1047 1.540       .   A
C1046     H1051 1.140       .   S
C1047     C1048 1.540       .   A
C1048     H1052 1.140       .   S
C1033     C1034 1.540       .   A
C1033     C1038 1.540       .   A
C1033     H1039 1.140       .   S
C1034     C1035 1.540       .   A
C1035     C1036 1.540       .   A
C1035     H1040 1.140       .   S
C1036     C1037 1.540       .   A
C1036     H1041 1.140       .   S
C1037     C1038 1.540       .   A
C1038     H1042 1.140       .   S
C1023     C1024 1.540       .   A
C1023     C1028 1.540       .   A
C1023     H1029 1.140       .   S
C1024     C1025 1.540       .   A
C1025     C1026 1.540       .   A
C1025     H1030 1.140       .   S
C1026     C1027 1.540       .   A
C1026     H1031 1.140       .   S
C1027     C1028 1.540       .   A
C1028     H1032 1.140       .   S
C1013     C1014 1.540       .   A
C1013     C1018 1.540       .   A
C1013     H1019 1.140       .   S
C1014     C1015 1.540       .   A
C1015     C1016 1.540       .   A
C1015     H1020 1.140       .   S
C1016     C1017 1.540       .   A
C1016     H1021 1.140       .   S
C1017     C1018 1.540       .   A
C1018     H1022 1.140       .   S
C1003     C1004 1.540       .   A
C1003     C1008 1.540       .   A
C1003     H1009 1.140       .   S
C1004     C1005 1.540       .   A
C1005     C1006 1.540       .   A
C1005     H1010 1.140       .   S
C1006     C1007 1.540       .   A
C1006     H1011 1.140       .   S
C1007     C1008 1.540       .   A
C1008     H1012 1.140       .   S
C993       C994 1.540       .   A
C993       C998 1.540       .   A
C993       H999 1.140       .   S
C994       C995 1.540       .   A
C995       C996 1.540       .   A
C995      H1000 1.140       .   S
C996       C997 1.540       .   A
C996      H1001 1.140       .   S
C997       C998 1.540       .   A
C998      H1002 1.140       .   S
C983       C984 1.540       .   A
C983       C988 1.540       .   A
C983       H989 1.140       .   S
C984       C985 1.540       .   A
C985       C986 1.540       .   A
C985       H990 1.140       .   S
C986       C987 1.540       .   A
C986       H991 1.140       .   S
C987       C988 1.540       .   A
C988       H992 1.140       .   S
C973       C974 1.540       .   A
C973       C978 1.540       .   A
C973       H979 1.140       .   S
C974       C975 1.540       .   A
C975       C976 1.540       .   A
C975       H980 1.140       .   S
C976       C977 1.540       .   A
C976       H981 1.140       .   S
C977       C978 1.540       .   A
C978       H982 1.140       .   S
C963       C964 1.540       .   A
C963       C968 1.540       .   A
C963       H969 1.140       .   S
C964       C965 1.540       .   A
C965       C966 1.540       .   A
C965       H970 1.140       .   S
C966       C967 1.540       .   A
C966       H971 1.140       .   S
C967       C968 1.540       .   A
C968       H972 1.140       .   S
C953       C954 1.540       .   A
C953       C958 1.540       .   A
C953       H959 1.140       .   S
C954       C955 1.540       .   A
C955       C956 1.540       .   A
C955       H960 1.140       .   S
C956       C957 1.540       .   A
C956       H961 1.140       .   S
C957       C958 1.540       .   A
C958       H962 1.140       .   S
C943       C944 1.540       .   A
C943       C948 1.540       .   A
C943       H949 1.140       .   S
C944       C945 1.540       .   A
C945       C946 1.540       .   A
C945       H950 1.140       .   S
C946       C947 1.540       .   A
C946       H951 1.140       .   S
C947       C948 1.540       .   A
C948       H952 1.140       .   S
C933       C934 1.540       .   A
C933       C938 1.540       .   A
C933       H939 1.140       .   S
C934       C935 1.540       .   A
C935       C936 1.540       .   A
C935       H940 1.140       .   S
C936       C937 1.540       .   A
C936       H941 1.140       .   S
C937       C938 1.540       .   A
C938       H942 1.140       .   S
C923       C924 1.540       .   A
C923       C928 1.540       .   A
C923       H929 1.140       .   S
C924       C925 1.540       .   A
C925       C926 1.540       .   A
C925       H930 1.140       .   S
C926       C927 1.540       .   A
C926       H931 1.140       .   S
C927       C928 1.540       .   A
C928       H932 1.140       .   S
C913       C914 1.540       .   A
C913       C918 1.540       .   A
C913       H919 1.140       .   S
C914       C915 1.540       .   A
C915       C916 1.540       .   A
C915       H920 1.140       .   S
C916       C917 1.540       .   A
C916       H921 1.140       .   S
C917       C918 1.540       .   A
C918       H922 1.140       .   S
C903       C904 1.540       .   A
C903       C908 1.540       .   A
C903       H909 1.140       .   S
C904       C905 1.540       .   A
C905       C906 1.540       .   A
C905       H910 1.140       .   S
C906       C907 1.540       .   A
C906       H911 1.140       .   S
C907       C908 1.540       .   A
C908       H912 1.140       .   S
C893       C894 1.540       .   A
C893       C898 1.540       .   A
C893       H899 1.140       .   S
C894       C895 1.540       .   A
C895       C896 1.540       .   A
C895       H900 1.140       .   S
C896       C897 1.540       .   A
C896       H901 1.140       .   S
C897       C898 1.540       .   A
C898       H902 1.140       .   S
C883       C884 1.540       .   A
C883       C888 1.540       .   A
C883       H889 1.140       .   S
C884       C885 1.540       .   A
C885       C886 1.540       .   A
C885       H890 1.140       .   S
C886       C887 1.540       .   A
C886       H891 1.140       .   S
C887       C888 1.540       .   A
C888       H892 1.140       .   S
C873       C874 1.540       .   A
C873       C878 1.540       .   A
C873       H879 1.140       .   S
C874       C875 1.540       .   A
C875       C876 1.540       .   A
C875       H880 1.140       .   S
C876       C877 1.540       .   A
C876       H881 1.140       .   S
C877       C878 1.540       .   A
C878       H882 1.140       .   S
C863       C864 1.540       .   A
C863       C868 1.540       .   A
C863       H869 1.140       .   S
C864       C865 1.540       .   A
C865       C866 1.540       .   A
C865       H870 1.140       .   S
C866       C867 1.540       .   A
C866       H871 1.140       .   S
C867       C868 1.540       .   A
C868       H872 1.140       .   S
C853       C854 1.540       .   A
C853       C858 1.540       .   A
C853       H859 1.140       .   S
C854       C855 1.540       .   A
C855       C856 1.540       .   A
C855       H860 1.140       .   S
C856       C857 1.540       .   A
C856       H861 1.140       .   S
C857       C858 1.540       .   A
C858       H862 1.140       .   S
C843       C844 1.540       .   A
C843       C848 1.540       .   A
C843       H849 1.140       .   S
C844       C845 1.540       .   A
C845       C846 1.540       .   A
C845       H850 1.140       .   S
C846       C847 1.540       .   A
C846       H851 1.140       .   S
C847       C848 1.540       .   A
C848       H852 1.140       .   S
C833       C834 1.540       .   A
C833       C838 1.540       .   A
C833       H839 1.140       .   S
C834       C835 1.540       .   A
C835       C836 1.540       .   A
C835       H840 1.140       .   S
C836       C837 1.540       .   A
C836       H841 1.140       .   S
C837       C838 1.540       .   A
C838       H842 1.140       .   S
C823       C824 1.540       .   A
C823       C828 1.540       .   A
C823       H829 1.140       .   S
C824       C825 1.540       .   A
C825       C826 1.540       .   A
C825       H830 1.140       .   S
C826       C827 1.540       .   A
C826       H831 1.140       .   S
C827       C828 1.540       .   A
C828       H832 1.140       .   S
C813       C814 1.540       .   A
C813       C818 1.540       .   A
C813       H819 1.140       .   S
C814       C815 1.540       .   A
C815       C816 1.540       .   A
C815       H820 1.140       .   S
C816       C817 1.540       .   A
C816       H821 1.140       .   S
C817       C818 1.540       .   A
C818       H822 1.140       .   S
C803       C804 1.540       .   A
C803       C808 1.540       .   A
C803       H809 1.140       .   S
C804       C805 1.540       .   A
C805       C806 1.540       .   A
C805       H810 1.140       .   S
C806       C807 1.540       .   A
C806       H811 1.140       .   S
C807       C808 1.540       .   A
C808       H812 1.140       .   S
C793       C794 1.540       .   A
C793       C798 1.540       .   A
C793       H799 1.140       .   S
C794       C795 1.540       .   A
C795       C796 1.540       .   A
C795       H800 1.140       .   S
C796       C797 1.540       .   A
C796       H801 1.140       .   S
C797       C798 1.540       .   A
C798       H802 1.140       .   S
C783       C784 1.540       .   A
C783       C788 1.540       .   A
C783       H789 1.140       .   S
C784       C785 1.540       .   A
C785       C786 1.540       .   A
C785       H790 1.140       .   S
C786       C787 1.540       .   A
C786       H791 1.140       .   S
C787       C788 1.540       .   A
C788       H792 1.140       .   S
C773       C774 1.540       .   A
C773       C778 1.540       .   A
C773       H779 1.140       .   S
C774       C775 1.540       .   A
C775       C776 1.540       .   A
C775       H780 1.140       .   S
C776       C777 1.540       .   A
C776       H781 1.140       .   S
C777       C778 1.540       .   A
C778       H782 1.140       .   S
C763       C764 1.540       .   A
C763       C768 1.540       .   A
C763       H769 1.140       .   S
C764       C765 1.540       .   A
C765       C766 1.540       .   A
C765       H770 1.140       .   S
C766       C767 1.540       .   A
C766       H771 1.140       .   S
C767       C768 1.540       .   A
C768       H772 1.140       .   S
C753       C754 1.540       .   A
C753       C758 1.540       .   A
C753       H759 1.140       .   S
C754       C755 1.540       .   A
C755       C756 1.540       .   A
C755       H760 1.140       .   S
C756       C757 1.540       .   A
C756       H761 1.140       .   S
C757       C758 1.540       .   A
C758       H762 1.140       .   S
C743       C744 1.540       .   A
C743       C748 1.540       .   A
C743       H749 1.140       .   S
C744       C745 1.540       .   A
C745       C746 1.540       .   A
C745       H750 1.140       .   S
C746       C747 1.540       .   A
C746       H751 1.140       .   S
C747       C748 1.540       .   A
C748       H752 1.140       .   S
C733       C734 1.540       .   A
C733       C738 1.540       .   A
C733       H739 1.140       .   S
C734       C735 1.540       .   A
C735       C736 1.540       .   A
C735       H740 1.140       .   S
C736       C737 1.540       .   A
C736       H741 1.140       .   S
C737       C738 1.540       .   A
C738       H742 1.140       .   S
C723       C724 1.540       .   A
C723       C728 1.540       .   A
C723       H729 1.140       .   S
C724       C725 1.540       .   A
C725       C726 1.540       .   A
C725       H730 1.140       .   S
C726       C727 1.540       .   A
C726       H731 1.140       .   S
C727       C728 1.540       .   A
C728       H732 1.140       .   S
C713       C714 1.540       .   A
C713       C718 1.540       .   A
C713       H719 1.140       .   S
C714       C715 1.540       .   A
C715       C716 1.540       .   A
C715       H720 1.140       .   S
C716       C717 1.540       .   A
C716       H721 1.140       .   S
C717       C718 1.540       .   A
C718       H722 1.140       .   S
C703       C704 1.540       .   A
C703       C708 1.540       .   A
C703       H709 1.140       .   S
C704       C705 1.540       .   A
C705       C706 1.540       .   A
C705       H710 1.140       .   S
C706       C707 1.540       .   A
C706       H711 1.140       .   S
C707       C708 1.540       .   A
C708       H712 1.140       .   S
C693       C694 1.540       .   A
C693       C698 1.540       .   A
C693       H699 1.140       .   S
C694       C695 1.540       .   A
C695       C696 1.540       .   A
C695       H700 1.140       .   S
C696       C697 1.540       .   A
C696       H701 1.140       .   S
C697       C698 1.540       .   A
C698       H702 1.140       .   S
C683       C684 1.540       .   A
C683       C688 1.540       .   A
C683       H689 1.140       .   S
C684       C685 1.540       .   A
C685       C686 1.540       .   A
C685       H690 1.140       .   S
C686       C687 1.540       .   A
C686       H691 1.140       .   S
C687       C688 1.540       .   A
C688       H692 1.140       .   S
C673       C674 1.540       .   A
C673       C678 1.540       .   A
C673       H679 1.140       .   S
C674       C675 1.540       .   A
C675       C676 1.540       .   A
C675       H680 1.140       .   S
C676       C677 1.540       .   A
C676       H681 1.140       .   S
C677       C678 1.540       .   A
C678       H682 1.140       .   S
