data_usf_v1-4c_Cu_1_Ch_1-1B_4H_Ch
_audit_creation_date              2024-08-05
_audit_creation_method            'tobacco_3.0'
_symmetry_space_group_name_H-M    'P1'
_symmetry_Int_Tables_number       1
_symmetry_cell_setting            triclinic
loop_
_symmetry_equiv_pos_as_xyz
  x,y,z
_cell_length_a                    36.819028179063565
_cell_length_b                    36.81922766531015
_cell_length_c                    20.876472142808176
_cell_angle_alpha                 89.97928417964594
_cell_angle_beta                  90.02081030772048
_cell_angle_gamma                 119.98105740583671
loop_
_atom_site_label
_atom_site_type_symbol
_atom_site_fract_x
_atom_site_fract_y
_atom_site_fract_z
_atom_site_charge
O1         O    0.8933132428    0.7269055230    0.6818339358         -1.3557
O2         O    0.7732632402    0.6668796617    0.6515292112         -1.3655
O3         O    0.8233765755    0.6919349054    0.7583771644         -1.2517
O4         O    0.8431962530    0.7018484584    0.5749781961         -1.3358
O5         O    0.8432197701    0.6414632738    0.5750150490         -1.3313
O6         O    0.8234051880    0.6315523673    0.7584084373         -1.2439
O7         O    0.7732867572    0.6064944770    0.6515660642         -1.3689
O8         O    0.8933367598    0.6665203383    0.6818707888         -1.3567
Cu9       Cu    0.8332827385    0.7024014217    0.6666781889          1.0456
Cu10      Cu    0.8333172615    0.6309985783    0.6667218111          1.0433
C11        C    0.9110258879    0.7055627048    0.6863218399          0.3063
C12        C    0.7555741121    0.6278372952    0.6470781601          0.2977
C13        C    0.8204728305    0.6602864547    0.7854311008          0.2191
C14        C    0.8461271695    0.6731135453    0.5479688992          0.2819
O15        O    0.1065962972    0.8340433927    0.8181692889         -1.3557
O16        O    0.2266464309    0.8940567116    0.8484728467         -1.3655
O17        O    0.1765326469    0.8690029408    0.7416253828         -1.2517
O18        O    0.1567137356    0.8590989968    0.9250245394         -1.3358
O19        O    0.1567294654    0.7987099189    0.9250647259         -1.3313
O20        O    0.1765432812    0.8086114143    0.7416711493         -1.2439
O21        O    0.2266621606    0.8336676337    0.8485130332         -1.3689
O22        O    0.1066120270    0.7736543148    0.8182094754         -1.3567
Cu23      Cu    0.1666232855    0.8695625934    0.8333174221          1.0456
Cu24      Cu    0.1666351724    0.7981484329    0.8333649001          1.0433
C25        C    0.0889032567    0.7949993372    0.8137200777          0.3063
C26        C    0.2443552011    0.8727116891    0.8529622445          0.2977
C27        C    0.1794559008    0.8402677253    0.7146099352          0.2191
C28        C    0.1538025571    0.8274433011    0.9520723869          0.2819
O29        O    0.5599750176    0.0601821109    0.0151518247         -1.3557
O30        O    0.4399253026    0.0001481688    0.9848444766         -1.3655
O31        O    0.4900376342    0.0252063439    0.0916935247         -1.2517
O32        O    0.5098590316    0.0351221148    0.9082949900         -1.3358
O33        O    0.5098880637    0.9747396879    0.9083318448         -1.3313
O34        O    0.4900717617    0.9648265638    0.0917247994         -1.2439
O35        O    0.4399543346    0.9397657419    0.9848813314         -1.3689
O36        O    0.5600040496    0.9997996840    0.0151886795         -1.3567
Cu37      Cu    0.4999441538    0.0356737174    0.9999947659          1.0456
Cu38      Cu    0.4999851984    0.9642741354    0.0000383902          1.0433
C39        C    0.5776903779    0.0388418631    0.0196401165          0.3063
C40        C    0.4222389744    0.9611059896    0.9803930396          0.2977
C41        C    0.4871363929    0.9935589454    0.1187473982          0.2191
C42        C    0.5127929593    0.0063889074    0.8812857579          0.2819
O43        O    0.2266405381    0.3934436206    0.3484781018         -1.3557
O44        O    0.1065903350    0.3334247757    0.3181752049         -1.3655
O45        O    0.1567043699    0.3584773985    0.4250223953         -1.2517
O46        O    0.1765228486    0.3683891772    0.2416231248         -1.3358
O47        O    0.1765415936    0.3080016067    0.2416599762         -1.3313
O48        O    0.1567282104    0.2980924741    0.4250536666         -1.2439
O49        O    0.1066090800    0.2730372052    0.3182120563         -1.3689
O50        O    0.2266592831    0.3330560501    0.3485149532         -1.3567
Cu51      Cu    0.1666103690    0.3689432455    0.3333232689          1.0456
Cu52      Cu    0.1666392490    0.2975375803    0.3333668891          1.0433
C53        C    0.2443508267    0.3720985750    0.3529657356          0.3063
C54        C    0.0888987914    0.2943822508    0.3137244225          0.2977
C55        C    0.1537984159    0.3268280161    0.4520763754          0.2191
C56        C    0.1794512022    0.3396528097    0.2146137826          0.2819
O57        O    0.7732651976    0.1674219307    0.1515292089         -1.3557
O58        O    0.8933152066    0.2274342566    0.1818339231         -1.3655
O59        O    0.8432018633    0.2023810946    0.0749859765         -1.2517
O60        O    0.8233821953    0.1924769260    0.2583849421         -1.3358
O61        O    0.8233973010    0.1320875361    0.2584251283         -1.3313
O62        O    0.8432118734    0.1419892562    0.0750317428         -1.2439
O63        O    0.8933303122    0.1670448667    0.1818741094         -1.3689
O64        O    0.7732803032    0.1070325408    0.1515693952         -1.3567
Cu65      Cu    0.8332921805    0.2029406634    0.1666779203          1.0456
Cu66      Cu    0.8333033293    0.1315261340    0.1667253980          1.0433
C67        C    0.7555718634    0.1283778657    0.1470798271          0.3063
C68        C    0.9110236464    0.2060889317    0.1863234912          0.2977
C69        C    0.8461249166    0.1736457562    0.0479705570          0.2191
C70        C    0.8204705932    0.1608210412    0.2854327613          0.2819
O71        O    0.5599763808    0.5607412093    0.5151478142         -1.3557
O72        O    0.4399266048    0.5006931246    0.4848411137         -1.3655
O73        O    0.4900391769    0.5257573107    0.5916898915         -1.2517
O74        O    0.5098601543    0.5356752016    0.4082912498         -1.3358
O75        O    0.5098986492    0.4752975074    0.4083281076         -1.3313
O76        O    0.4900827672    0.4653822639    0.5917211693         -1.2439
O77        O    0.4399650997    0.4403154303    0.4848779715         -1.3689
O78        O    0.5600148757    0.5003635150    0.5151846720         -1.3567
Cu79      Cu    0.4999446230    0.5362253122    0.4999910789          1.0456
Cu80      Cu    0.4999968575    0.4648313274    0.5000347068          1.0433
C81        C    0.5776964816    0.5394054131    0.5196360120          0.3063
C82        C    0.4222449988    0.4616512264    0.4803897737          0.2977
C83        C    0.4871427286    0.4941119666    0.6187437823          0.2191
C84        C    0.5127987519    0.5069446729    0.3812820034          0.2819
O85        O    0.1064367005    0.3331585669    0.8484693729         -1.3557
O86        O    0.1664874518    0.2731316907    0.8182205288         -1.3655
O87        O    0.1414318232    0.2981809214    0.9250451621         -1.2517
O88        O    0.1314941500    0.3081075033    0.7416369547         -1.3358
O89        O    0.1918703421    0.3684909355    0.7416354578         -1.3313
O90        O    0.2018053670    0.3585668034    0.9250380827         -1.2439
O91        O    0.2268636439    0.3335151229    0.8182190319         -1.3689
O92        O    0.1668128926    0.3935419991    0.8484678759         -1.3567
Cu93      Cu    0.1309540681    0.2976331023    0.8333450675          1.0456
Cu94      Cu    0.2023462763    0.3690405876    0.8333433372          1.0433
C95        C    0.1277713525    0.3722017982    0.8529298621          0.3063
C96        C    0.2055289919    0.2944718916    0.8137585426          0.2977
C97        C    0.1730793322    0.3269099780    0.9520812842          0.2191
C98        C    0.1602210123    0.3397637119    0.7146071205          0.2819
O99        O    0.2737513457    0.1671106580    0.6818358761         -1.3557
O100       O    0.3337889697    0.1070707658    0.6515859982         -1.3655
O101       O    0.3087389927    0.1321252536    0.7584110631         -1.2517
O102       O    0.2988031432    0.1420543368    0.5750030263         -1.3358
O103       O    0.3591837209    0.2024333840    0.5750015350         -1.3313
O104       O    0.3691169228    0.1925067513    0.7584039894         -1.2439
O105       O    0.3941695475    0.1674498130    0.6515845068         -1.3689
O106       O    0.3341319235    0.2274897053    0.6818343848         -1.3567
Cu107     Cu    0.2982617491    0.1315790851    0.6667110533          1.0456
Cu108     Cu    0.3696591441    0.2029813859    0.6667093297          1.0433
C109       C    0.2950901261    0.2061536160    0.6862965206          0.3063
C110       C    0.3728307671    0.1284068551    0.6471238623          0.2977
C111       C    0.3403884262    0.1608517499    0.7854471629          0.2191
C112       C    0.3275324670    0.1737087211    0.5479732201          0.2819
O113       O    0.0003958185    0.4403563262    0.9849011868         -1.3557
O114       O    0.9403470667    0.5003847096    0.0151545794         -1.3655
O115       O    0.9654046602    0.4753391793    0.9083280472         -1.2517
O116       O    0.9753363915    0.4654036765    0.0917355040         -1.3358
O117       O    0.0357128386    0.5257868538    0.0917373428         -1.3313
O118       O    0.0257835581    0.5357197092    0.9083354683         -1.2439
O119       O    0.0007235138    0.5607678868    0.0151564182         -1.3689
O120       O    0.0607722656    0.5007395034    0.9849030257         -1.3567
Cu121     Cu    0.9648600529    0.4648618718    0.0000277354          1.0456
Cu122     Cu    0.0362592795    0.5362623412    0.0000298697          1.0433
C123       C    0.0394387827    0.4616977689    0.9804401979          0.3063
C124       C    0.9616805497    0.5394264441    0.0196174071          0.2977
C125       C    0.9941294666    0.5069898618    0.8812922064          0.2191
C126       C    0.0069898658    0.4941343512    0.1187653986          0.2819
O127       O    0.6069692228    0.8337018912    0.3484620168         -1.3557
O128       O    0.6670002493    0.7736552242    0.3182137795         -1.3655
O129       O    0.6419527494    0.7987128148    0.4250381595         -1.2517
O130       O    0.6320185429    0.8086424670    0.2416298520         -1.3358
O131       O    0.6924013636    0.8690192709    0.2416283635         -1.3313
O132       O    0.7023329227    0.8590920695    0.4250310886         -1.2439
O133       O    0.7273830700    0.8340320281    0.3182122910         -1.3689
O134       O    0.6673520435    0.8940786951    0.3484605283         -1.3567
Cu135     Cu    0.6314761226    0.7981671354    0.3333380141          1.0456
Cu136     Cu    0.7028761702    0.8695667839    0.3333362938          1.0433
C137       C    0.6283100975    0.8727447264    0.3529224208          0.3063
C138       C    0.7060421953    0.7949891929    0.3137518870          0.2977
C139       C    0.6736030624    0.8274381060    0.4520743005          0.2191
C140       C    0.6607492304    0.8402958133    0.2146000073          0.2819
O141       O    0.7730574063    0.6664147595    0.1818266825         -1.3557
O142       O    0.8331045896    0.6063842029    0.1515788734         -1.3655
O143       O    0.8080502758    0.6314351433    0.2584030746         -1.2517
O144       O    0.7981135409    0.6413619860    0.0749946965         -1.3358
O145       O    0.8584909490    0.7017442026    0.0749932011         -1.3313
O146       O    0.8684250358    0.6918198098    0.2583959967         -1.2439
O147       O    0.8934819978    0.6667664194    0.1515773780         -1.3689
O148       O    0.8334348145    0.7267969760    0.1818251871         -1.3567
Cu149     Cu    0.7975728789    0.6308875655    0.1667028945          1.0456
Cu150     Cu    0.8689665252    0.7022936134    0.1667011660          1.0433
C151       C    0.7943931924    0.7054579256    0.1862870199          0.3063
C152       C    0.8721462117    0.6277232533    0.1471170406          0.2977
C153       C    0.8396982546    0.6601635538    0.2854392226          0.2191
C154       C    0.8268411495    0.6730176251    0.0479648379          0.2819
O155       O    0.4997934334    0.9397685084    0.4848863335         -1.3557
O156       O    0.4397739691    0.9998260193    0.5151411881         -1.3655
O157       O    0.4648190966    0.9747685810    0.4083140456         -1.2517
O158       O    0.4747464732    0.9648277676    0.5917212611         -1.3358
O159       O    0.5351327183    0.0252011456    0.5917231124         -1.3313
O160       O    0.5252077913    0.0351393104    0.4083214791         -1.2439
O161       O    0.5001602142    0.0601993973    0.5151430394         -1.3689
O162       O    0.5601796785    0.0001418864    0.4848881849         -1.3567
Cu163     Cu    0.4642714182    0.9642895128    0.5000136120          1.0456
Cu164     Cu    0.5356822294    0.0356783928    0.5000157610          1.0433
C165       C    0.5388369784    0.9611007566    0.4804251352          0.3063
C166       C    0.4611166692    0.0388671491    0.5196042377          0.2977
C167       C    0.4935494421    0.0064151456    0.3812782465          0.2191
C168       C    0.5064042056    0.9935527600    0.6187511264          0.2819
O169       O    0.3340078686    0.1071868997    0.1818738690         -1.3557
O170       O    0.3940290695    0.2272362363    0.1515695046         -1.3655
O171       O    0.3689722329    0.1771232342    0.2584173051         -1.2517
O172       O    0.3590665387    0.1573035562    0.0750182819         -1.3358
O173       O    0.2986796914    0.1573244021    0.0749779182         -1.3313
O174       O    0.3085829367    0.1771389845    0.2583713614         -1.2439
O175       O    0.3336422221    0.2272570822    0.1515291409         -1.3689
O176       O    0.2736210213    0.1072077455    0.1818335053         -1.3567
Cu177     Cu    0.3695308070    0.1672130226    0.1667253487          1.0456
Cu178     Cu    0.2981192837    0.1672309593    0.1666776612          1.0433
C179       C    0.2949637664    0.0894965348    0.1863231106          0.3063
C180       C    0.3726863244    0.2449474471    0.1470798993          0.2977
C181       C    0.3402383902    0.1800491589    0.2854326444          0.2191
C182       C    0.3274117005    0.1543948230    0.0479703655          0.2819
O183       O    0.5001198443    0.4405121502    0.0151891676         -1.3557
O184       O    0.5601654946    0.5605612503    0.9848827372         -1.3655
O185       O    0.5350988023    0.5104490473    0.0917313999         -1.2517
O186       O    0.5251883708    0.4906280075    0.9083327183         -1.3358
O187       O    0.4648097616    0.4906653271    0.9082923493         -1.3313
O188       O    0.4747177431    0.5104812713    0.0916854511         -1.2439
O189       O    0.4997868854    0.5605985698    0.9848423683         -1.3689
O190       O    0.4397412351    0.4405494698    0.0151487987         -1.3567
Cu191     Cu    0.5356542563    0.5005366515    0.0000396147          1.0456
Cu192     Cu    0.4642524734    0.5005740686    0.9999919212          1.0433
C193       C    0.4610762563    0.4228300573    0.0196387112          0.3063
C194       C    0.5388304734    0.5782806627    0.9803928246          0.2977
C195       C    0.5063697754    0.5133834090    0.1187466864          0.2191
C196       C    0.4935369543    0.4877273110    0.8812848495          0.2819
O197       O    0.2268364820    0.8939144293    0.3182102976         -1.3557
O198       O    0.1668267862    0.7738651125    0.3485148823         -1.3655
O199       O    0.1918752190    0.8239780358    0.2416669875         -1.2517
O200       O    0.2017862289    0.8437978517    0.4250659789         -1.3358
O201       O    0.1413951947    0.8438103226    0.4250289539         -1.3313
O202       O    0.1314868306    0.8239956022    0.2416355426         -1.2439
O203       O    0.1064357521    0.7738775835    0.3484778572         -1.3689
O204       O    0.1664454478    0.8939269003    0.3181732726         -1.3567
Cu205     Cu    0.2023409978    0.8338852760    0.3333659902          1.0456
Cu206     Cu    0.1309312363    0.8339067368    0.3333221646          1.0433
C207       C    0.2054883554    0.9116214501    0.3137223281          0.3063
C208       C    0.1277838786    0.7561705627    0.3529658267          0.2977
C209       C    0.1602242178    0.8210687478    0.2146129617          0.2191
C210       C    0.1730480162    0.8467232650    0.4520751932          0.2819
O211       O    0.0607956900    0.5605772976    0.4848962969         -1.3557
O212       O    0.0007622764    0.4405282268    0.5152030674         -1.3655
O213       O    0.0258202400    0.4906403077    0.4083542604         -1.2517
O214       O    0.0357359054    0.5104615623    0.5917528905         -1.3358
O215       O    0.9753528639    0.5104900195    0.5917158603         -1.3313
O216       O    0.9654398453    0.4906738605    0.4083228103         -1.2439
O217       O    0.9403792349    0.4405566840    0.5151660373         -1.3689
O218       O    0.0004126485    0.5606057548    0.4848592668         -1.3567
Cu219     Cu    0.0362876168    0.5005468084    0.5000530829          1.0456
Cu220     Cu    0.9648873081    0.5005871732    0.5000092512          1.0433
C221       C    0.0394550570    0.5782922754    0.4804080026          0.3063
C222       C    0.9617198679    0.4228417061    0.5196543316          0.2977
C223       C    0.9941725498    0.4877388001    0.3813002852          0.2191
C224       C    0.0070023751    0.5133951815    0.6187620490          0.2819
O225       O    0.8934629750    0.2272423136    0.6515691002         -1.3557
O226       O    0.8334431368    0.1071928198    0.6818720152         -1.3655
O227       O    0.8584960831    0.1573063764    0.5750248173         -1.2517
O228       O    0.8684082081    0.1771251026    0.7584240847         -1.3358
O229       O    0.8080205441    0.1771443151    0.7583870575         -1.3313
O230       O    0.7981110653    0.1573306843    0.5749933703         -1.2439
O231       O    0.7730554729    0.1072120324    0.6818349880         -1.3689
O232       O    0.8330753110    0.2272615262    0.6515320731         -1.3567
Cu233     Cu    0.8689621117    0.1672124566    0.6667239581          1.0456
Cu234     Cu    0.7975563361    0.1672418894    0.6666801301          1.0433
C235       C    0.8721180290    0.2449527314    0.6470813759          0.3063
C236       C    0.7944004188    0.0895016146    0.6863227124          0.2977
C237       C    0.8268466030    0.1544006195    0.5479707497          0.2191
C238       C    0.8396718448    0.1800537264    0.7854333385          0.2819
O239       O    0.6674704663    0.7738609150    0.8485178547         -1.3557
O240       O    0.7274885798    0.8939104221    0.8182150574         -1.3655
O241       O    0.7024327682    0.8437968212    0.9250622039         -1.2517
O242       O    0.6925281113    0.8239781704    0.7416629217         -1.3358
O243       O    0.6321402004    0.8239968889    0.7416225586         -1.3313
O244       O    0.6420424086    0.8438104442    0.9250162609         -1.2439
O245       O    0.6671006689    0.8939291407    0.8181746944         -1.3689
O246       O    0.6070825554    0.7738796335    0.8484774916         -1.3567
Cu247     Cu    0.7029919580    0.8338873173    0.8333701179          1.0456
Cu248     Cu    0.6315791772    0.8339027384    0.8333224311          1.0433
C249       C    0.6284262875    0.7561694612    0.8529668655          0.3063
C250       C    0.7061448477    0.9116205944    0.8137256835          0.2977
C251       C    0.6736982410    0.8467215309    0.9520775817          0.2191
C252       C    0.6608728942    0.8210685248    0.7146149674          0.2819
C603       C    0.7753036250    0.0399903237    0.7915489528          0.3708
C604       C    0.7719664954    0.0442855547    0.7187076198          0.3708
C605       C    0.7469355037    0.0048563355    0.6771828649          0.3708
C606       C    0.7252416415    0.9611318853    0.7084994431          0.3708
C607       C    0.7285787711    0.9568366543    0.7813407761          0.3708
C608       C    0.7536097629    0.9962658735    0.8228655310          0.3708
H609       H    0.7938330604    0.0691781873    0.8222880570          0.3708
H610       H    0.7444645800    0.0080344024    0.6232646550          0.3708
H611       H    0.7067122061    0.9319440217    0.6777603389          0.3708
H612       H    0.7560806865    0.9930878066    0.8767837409          0.3708
C593       C    0.9630122663    0.3538358746    0.5620888495          0.3708
C594       C    0.9389421117    0.3776204055    0.5520476640          0.3708
C595       C    0.8928487939    0.3576817497    0.5733266682          0.3708
C596       C    0.8708256306    0.3139585630    0.6046468580          0.3708
C597       C    0.8948957852    0.2901740321    0.6146880435          0.3708
C598       C    0.9409891031    0.3101126879    0.5934090392          0.3708
H599       H    0.9971332938    0.3685956588    0.5463368593          0.3708
H600       H    0.8750306923    0.3752863439    0.5658948918          0.3708
H601       H    0.8367046031    0.2991987788    0.6203988482          0.3708
H602       H    0.9588072047    0.2925080936    0.6008408156          0.3708
C583       C    0.0572943374    0.6864297580    0.3928172807          0.3708
C584       C    0.1053304372    0.7109533885    0.3853619957          0.3708
C585       C    0.1316555676    0.6917550496    0.4092316296          0.3708
C586       C    0.1099445982    0.6480330801    0.4405565486          0.3708
C587       C    0.0619084984    0.6235094496    0.4480118335          0.3708
C588       C    0.0355833680    0.6427077885    0.4241421996          0.3708
H589       H    0.0378069031    0.7006415154    0.3751475517          0.3708
H590       H    0.1672125511    0.7099067462    0.4037140096          0.3708
H591       H    0.1294320325    0.6338213227    0.4582262776          0.3708
H592       H    0.0000263845    0.6245560919    0.4296598197          0.3708
C573       C    0.5660148048    0.6276413746    0.8746193915          0.3708
C574       C    0.5616066430    0.6235018094    0.9479998463          0.3708
C575       C    0.5792202187    0.6630854969    0.9900602999          0.3708
C576       C    0.6012419561    0.7068087494    0.9587402986          0.3708
C577       C    0.6056501178    0.7109483145    0.8853598438          0.3708
C578       C    0.5880365422    0.6713646271    0.8432993903          0.3708
H579       H    0.5529761839    0.5983391644    0.8434837311          0.3708
H580       H    0.5759578704    0.6600226582    0.0443775828          0.3708
H581       H    0.6142805770    0.7361109596    0.9898759590          0.3708
H582       H    0.5912988904    0.6744274658    0.7889821074          0.3708
C563       C    0.2244004044    0.0209085788    0.2288945294          0.3708
C564       C    0.2722204841    0.0442834061    0.2187060451          0.3708
C565       C    0.2980461406    0.0239338198    0.2398342351          0.3708
C566       C    0.2760517174    0.9802094061    0.2711509093          0.3708
C567       C    0.2282316378    0.9568345788    0.2813393936          0.3708
C568       C    0.2024059813    0.9771841652    0.2602112036          0.3708
H569       H    0.2052827107    0.0359725583    0.2132541810          0.3708
H570       H    0.3334432109    0.0412351398    0.2322934239          0.3708
H571       H    0.2951694112    0.9651454266    0.2867912577          0.3708
H572       H    0.1670089110    0.9598828451    0.2677520148          0.3708
C553       C    0.3918760731    0.3263238328    0.1458523462          0.3708
C554       C    0.3951556804    0.2901664852    0.1146834333          0.3708
C555       C    0.4201608976    0.2977314046    0.0521903923          0.3708
C556       C    0.4418865075    0.3414536716    0.0208662643          0.3708
C557       C    0.4386069002    0.3776110192    0.0520351773          0.3708
C558       C    0.4136016830    0.3700460998    0.1145282183          0.3708
H559       H    0.3733657176    0.3207238276    0.1921134285          0.3708
H560       H    0.4225892426    0.2709681038    0.0291172960          0.3708
H561       H    0.4603968630    0.3470536768    0.9746051821          0.3708
H562       H    0.4111733381    0.3968094005    0.1376013146          0.3708
C543       C    0.6574748399    0.7845692907    0.5452712882          0.3708
C544       C    0.6708050457    0.8260381092    0.5097792083          0.3708
C545       C    0.6805681840    0.8657221338    0.5478525541          0.3708
C546       C    0.6770011166    0.8639373400    0.6214179798          0.3708
C547       C    0.6636709109    0.8224685216    0.6569100596          0.3708
C548       C    0.6539077726    0.7827844969    0.6188367138          0.3708
H549       H    0.6502475817    0.7551928050    0.5170871231          0.3708
H550       H    0.6904354639    0.8964184617    0.5215826477          0.3708
H551       H    0.6842283749    0.8933138258    0.6496021448          0.3708
H552       H    0.6440404927    0.7520881690    0.6451066203          0.3708
C533       C    0.6421475631    0.8610464672    0.1173966871          0.3708
C534       C    0.6635954416    0.8417081953    0.1568971995          0.3708
C535       C    0.6886716142    0.8241704002    0.1228393069          0.3708
C536       C    0.6922999083    0.8259708770    0.0492809019          0.3708
C537       C    0.6708520298    0.8453091489    0.0097803895          0.3708
C538       C    0.6457758572    0.8628469440    0.0438382821          0.3708
H539       H    0.6235846820    0.8740289908    0.1426083739          0.3708
H540       H    0.7045480513    0.8098557251    0.1520763679          0.3708
H541       H    0.7108627894    0.8129883534    0.0240692151          0.3708
H542       H    0.6298994201    0.8771616191    0.0146012211          0.3708
C523       C    0.7687718731    0.7765782851    0.3110919172          0.3708
C524       C    0.7285024797    0.7722288643    0.2813482101          0.3708
C525       C    0.7099483004    0.7458741385    0.2202757464          0.3708
C526       C    0.7316635146    0.7238688334    0.1889469897          0.3708
C527       C    0.7719329080    0.7282182542    0.2186906968          0.3708
C528       C    0.7904870873    0.7545729801    0.2797631605          0.3708
H529       H    0.7825067850    0.7960876276    0.3563014033          0.3708
H530       H    0.6801404513    0.7426538786    0.1982576273          0.3708
H531       H    0.7179286027    0.7043594909    0.1437375036          0.3708
H532       H    0.8202949363    0.7577932399    0.3017812796          0.3708
C513       C    0.6184700383    0.9405781675    0.3668875647          0.3708
C514       C    0.6055687681    0.8952021259    0.3853297098          0.3708
C515       C    0.5706722678    0.8715466999    0.4351159232          0.3708
C516       C    0.5486770376    0.8932673154    0.4664599914          0.3708
C517       C    0.5615783078    0.9386433570    0.4480178462          0.3708
C518       C    0.5964748081    0.9622987831    0.3982316329          0.3708
H519       H    0.6443025125    0.9580893271    0.3300328353          0.3708
H520       H    0.5611216890    0.8379587665    0.4487683091          0.3708
H521       H    0.5228445633    0.8757561559    0.5033147208          0.3708
H522       H    0.6060253868    0.9958867164    0.3845792470          0.3708
C503       C    0.9779734744    0.4675058973    0.7844512958          0.3708
C504       C    0.9969589361    0.5083977532    0.8235879906          0.3708
C505       C    0.0195513826    0.5510843775    0.7891638225          0.3708
C506       C    0.0231583673    0.5528791460    0.7156029596          0.3708
C507       C    0.0041729055    0.5119872901    0.6764662648          0.3708
C508       C    0.9815804591    0.4693006658    0.7108904329          0.3708
H509       H    0.9612491958    0.4359067079    0.8099341215          0.3708
H510       H    0.0336050689    0.5813537348    0.8181315754          0.3708
H511       H    0.0398826459    0.5844783354    0.6901201339          0.3708
H512       H    0.9675267727    0.4390313084    0.6819226800          0.3708
C493       C    0.9586904952    0.4600443698    0.2822395907          0.3708
C494       C    0.9969897776    0.4891445332    0.3235954902          0.3708
C495       C    0.0388804902    0.5200367390    0.2913887414          0.3708
C496       C    0.0424719204    0.5218287815    0.2178260931          0.3708
C497       C    0.0041726379    0.4927286181    0.1764701936          0.3708
C498       C    0.9622819254    0.4618364123    0.2086769424          0.3708
H499       H    0.9276804872    0.4371761136    0.3060809502          0.3708
H500       H    0.0672308087    0.5415775541    0.3219992120          0.3708
H501       H    0.0734819284    0.5446970377    0.1939847336          0.3708
H502       H    0.9339316069    0.4402955972    0.1780664718          0.3708
C483       C    0.8966485571    0.5355237379    0.0864541501          0.3708
C484       C    0.9389235269    0.5618689231    0.0520241030          0.3708
C485       C    0.9591883505    0.6099200340    0.0489371768 0.36360000000000003
C486       C    0.9371782043    0.6316259596    0.0802802977          0.3708
C487       C    0.8949032345    0.6052807743    0.1147103447          0.3708
C488       C    0.8746384109    0.5572296635    0.1177972709          0.3708
H489       H    0.8816473240    0.4999534350    0.0887392773          0.3708
H490       H    0.9904807742    0.6294221671    0.0234520807          0.3708
H491       H    0.9521794373    0.6671962624    0.0779951705          0.3708
H492       H    0.8433459871    0.5377275303    0.1432823671          0.3708
C473       C    0.2940194559    0.1379528067    0.8751069260          0.3708
C474       C    0.3375360686    0.1594324809    0.8431512450          0.3708
C475       C    0.3774166761    0.1791029607    0.8847530832          0.3708
C476       C    0.3737806708    0.1772937662    0.9583106023          0.3708
C477       C    0.3302640581    0.1558140920    0.9902662833          0.3708
C478       C    0.2903834506    0.1361436122    0.9486644452          0.3708
H479       H    0.2644974478    0.1233915424    0.8443107601          0.3708
H480       H    0.4096287803    0.1950027617    0.8611009183          0.3708
H481       H    0.4033026790    0.1918550305    0.9891067682          0.3708
H482       H    0.2581713464    0.1202438111    0.9723166101          0.3708
C463       C    0.2906430800    0.1513721877    0.4487918294          0.3708
C464       C    0.3303251167    0.1751022934    0.4902691207          0.3708
C465       C    0.3735674653    0.2006090457    0.4581802235          0.3708
C466       C    0.3771277772    0.2023856924    0.3846140351          0.3708
C467       C    0.3374457405    0.1786555867    0.3431367438          0.3708
C468       C    0.2942033919    0.1531488343    0.3752256409          0.3708
H469       H    0.2586325103    0.1324905658    0.4725459481          0.3708
H470       H    0.4029413363    0.2181747928    0.4888805516          0.3708
H471       H    0.4091383469    0.2212673143    0.3608599164          0.3708
H472       H    0.2648295209    0.1355830872    0.3445253129          0.3708
C453       C    0.3817322387    0.0861705873    0.5475495475          0.3708
C454       C    0.3952705395    0.1056484013    0.6147119904          0.3708
C455       C    0.4305120189    0.1031148160    0.6505264929          0.3708
C456       C    0.4522151976    0.0811034168    0.6191785526          0.3708
C457       C    0.4386768968    0.0616256028    0.5520161096          0.3708
C458       C    0.4034354174    0.0641591881    0.5162016071          0.3708
H459       H    0.3556443903    0.0880460985    0.5210375131          0.3708
H460       H    0.4405341364    0.1175321445    0.7002410279          0.3708
H461       H    0.4783030460    0.0792279057    0.6456905869          0.3708
H462       H    0.3934132999    0.0497418596    0.4664870721          0.3708
C443       C    0.0605791578    0.3832828456    0.8649549422          0.3708
C444       C    0.1053197315    0.3949491225    0.8853393542          0.3708
C445       C    0.1283456413    0.4286160605    0.9370694420          0.3708
C446       C    0.1066309773    0.4506167215    0.9684151178          0.3708
C447       C    0.0618904036    0.4389504446    0.9480307058          0.3708
C448       C    0.0388644939    0.4052835066    0.8963006180          0.3708
H449       H    0.0435340039    0.3583605668    0.8266612409          0.3708
H450       H    0.1614631836    0.4372524627    0.9521595484          0.3708
H451       H    0.1236761313    0.4755390003    0.0067088191          0.3708
H452       H    0.0057469515    0.3966471044    0.8812105116          0.3708
C433       C    0.2973110534    0.2670750032    0.7621017240          0.3708
C434       C    0.2723225694    0.2286052225    0.7186989555          0.3708
C435       C    0.2253210751    0.2118429731    0.7066247631          0.3708
C436       C    0.2033080647    0.2335505044    0.7379533392          0.3708
C437       C    0.2282965486    0.2720202850    0.7813561078          0.3708
C438       C    0.2752980430    0.2887825344    0.7934303002          0.3708
H439       H    0.3321043674    0.2794834216    0.7710397625          0.3708
H440       H    0.2068232006    0.1833672477    0.6744978059          0.3708
H441       H    0.1685147507    0.2211420860    0.7290153007          0.3708
H442       H    0.2937959175    0.3172582598    0.8255572573          0.3708
C423       C    0.5134458077    0.5334485931    0.7152203374          0.3708
C424       C    0.4885480963    0.4927087023    0.6764468974          0.3708
C425       C    0.4654421300    0.4501797480    0.7112408759          0.3708
C426       C    0.4672338751    0.4483906845    0.7848082944          0.3708
C427       C    0.4921315865    0.4891305754    0.8235817344          0.3708
C428       C    0.5152375529    0.5316595297    0.7887877559          0.3708
H429       H    0.5305502244    0.5649310658    0.6894637559          0.3708
H430       H    0.4470122012    0.4200228796    0.6825420145          0.3708
H431       H    0.4501294585    0.4169082118    0.8105648759          0.3708
H432       H    0.5336674816    0.5618163980    0.8174866173          0.3708
C413       C    0.4833448285    0.5231289166    0.2914572702          0.3708
C414       C    0.5113857170    0.5083598530    0.3235789501          0.3708
C415       C    0.5376251521    0.4953949773    0.2821360248          0.3708
C416       C    0.5358236988    0.4971991654    0.2085714195          0.3708
C417       C    0.5077828103    0.5119682290    0.1764497396          0.3708
C418       C    0.4815433752    0.5249331046    0.2178926650          0.3708
H419       H    0.4639208311    0.5327262920    0.3221357994          0.3708
H420       H    0.5583817485    0.4844625586    0.3059110665          0.3708
H421       H    0.5552476962    0.4876017899    0.1778928904          0.3708
H422       H    0.4607867788    0.5358655233    0.1941176233          0.3708
C403       C    0.8715331714    0.1628260189    0.9488392282          0.3708
C404       C    0.8447065779    0.1750541820    0.9902667664          0.3708
C405       C    0.8160717873    0.1890779044    0.9581294860          0.3708
C406       C    0.8142635901    0.1908734637    0.8845646673          0.3708
C407       C    0.8410901835    0.1786453007    0.8431371291          0.3708
C408       C    0.8697249742    0.1646215783    0.8752744095          0.3708
H409       H    0.8927303541    0.1524448218    0.9726291631          0.3708
H410       H    0.7962139319    0.1981295910    0.9887929855          0.3708
H411       H    0.7930664074    0.2012546608    0.8607747324          0.3708
H412       H    0.8895828295    0.1555698917    0.8446109100          0.3708
C393       C    0.8458867976    0.1400016859    0.3752134878          0.3708
C394       C    0.8218719499    0.1594099234    0.3431348950          0.3708
C395       C    0.7996437504    0.1770190678    0.3846231628          0.3708
C396       C    0.8014303986    0.1752199748    0.4581900233          0.3708
C397       C    0.8254452463    0.1558117373    0.4902686160          0.3708
C398       C    0.8476734458    0.1382025929    0.4487803483          0.3708
H399       H    0.8623414388    0.1269663452    0.3445013935          0.3708
H400       H    0.7818673420    0.1913855335    0.3608800154          0.3708
H401       H    0.7849757574    0.1882553155    0.4889021176          0.3708
H402       H    0.8654498542    0.1238361272    0.4725234956          0.3708
C383       C    0.1161487001    0.3010249727    0.5500473016          0.3708
C384       C    0.1552101577    0.3296713931    0.5097828872          0.3708
C385       C    0.1960711717    0.3619422844    0.5430773336          0.3708
C386       C    0.1978707280    0.3655667553    0.6166361944          0.3708
C387       C    0.1588092704    0.3369203349    0.6569006087          0.3708
C388       C    0.1179482564    0.3046494436    0.6236061623          0.3708
H389       H    0.0859009365    0.2771361311    0.5254007633          0.3708
H390       H    0.2249856169    0.3831472842    0.5132748109          0.3708
H391       H    0.2281184916    0.3894555969    0.6412827326          0.3708
H392       H    0.0890338112    0.2834444438    0.6534086850          0.3708
C373       C    0.1412989899    0.3357838008    0.1200262709          0.3708
C374       C    0.1780507481    0.3368521012    0.1569125585          0.3708
C375       C    0.2130170254    0.3343496943    0.1202338210          0.3708
C376       C    0.2112315444    0.3307789869    0.0466687959          0.3708
C377       C    0.1744797862    0.3297106864    0.0097825083          0.3708
C378       C    0.1395135089    0.3322130934    0.0464612459          0.3708
H379       H    0.1154148626    0.3376362319    0.1471780637          0.3708
H380       H    0.2402216528    0.3351403673    0.1475357591          0.3708
H381       H    0.2371156718    0.3289265558    0.0195170032          0.3708
H382       H    0.1123088815    0.3314224204    0.0191593077          0.3708
C363       C    0.9912748353    0.2704326086    0.1917588948          0.3708
C364       C    0.9562366237    0.2285316616    0.2187067419          0.3708
C365       C    0.9649230073    0.2083346442    0.2769718040          0.3708
C366       C    0.0086476026    0.2300385739    0.3082890189          0.3708
C367       C    0.0436858141    0.2719395210    0.2813411718          0.3708
C368       C    0.0349994305    0.2921365383    0.2230761098          0.3708
H369       H    0.9848446552    0.2853836475    0.1486276151          0.3708
H370       H    0.9389881225    0.1773190729    0.2969203485          0.3708
H371       H    0.0150777827    0.2150875351    0.3514202986          0.3708
H372       H    0.0609343153    0.3231521096    0.2031275652          0.3708
C353       C    0.2940328967    0.4045592958    0.4576181218          0.3708
C354       C    0.2895740133    0.3948641115    0.3853587082          0.3708
C355       C    0.3288390294    0.4071797164    0.3444183411          0.3708
C356       C    0.3725629288    0.4291905057    0.3757373875          0.3708
C357       C    0.3770218122    0.4388856899    0.4479968010          0.3708
C358       C    0.3377567961    0.4265700850    0.4889371682          0.3708
H359       H    0.2649665861    0.3954425493    0.4879246273          0.3708
H360       H    0.3255398224    0.4000037652    0.2909308843          0.3708
H361       H    0.4016292394    0.4383072522    0.3454308819          0.3708
H362       H    0.3410560031    0.4337460362    0.5424246249          0.3708
C343       C    0.5248854852    0.0428665387    0.7820903440          0.3708
C344       C    0.5113887077    0.0035675150    0.8235804996          0.3708
C345       C    0.4961018049    0.9606718101    0.7915085977          0.3708
C346       C    0.4943116797    0.9570751288    0.7179465403          0.3708
C347       C    0.5078084572    0.9963741524    0.6764563847          0.3708
C348       C    0.5230953599    0.0392698573    0.7085282866          0.3708
H349       H    0.5362017638    0.0746205021    0.8058318817          0.3708
H350       H    0.4861110543    0.9315814550    0.8222184485          0.3708
H351       H    0.4829954010    0.9253211654    0.6942050026          0.3708
H352       H    0.5330861105    0.0683602125    0.6778184358          0.3708
C333       C    0.4953232333    0.9678456443    0.2906988748          0.3708
C334       C    0.4921398605    0.0035893661    0.3235742375          0.3708
C335       C    0.4871595447    0.0357307674    0.2828881850          0.3708
C336       C    0.4853626017    0.0321284468    0.2093267699          0.3708
C337       C    0.4885459745    0.9963847249    0.1764514073          0.3708
C338       C    0.4935262903    0.9642433237    0.2171374597          0.3708
H339       H    0.4990099606    0.9440526589    0.3208171214          0.3708
H340       H    0.4848030658    0.0621891604    0.3072211241          0.3708
H341       H    0.4816758743    0.0559214321    0.1792085233          0.3708
H342       H    0.4958827692    0.9377849306    0.1928045207          0.3708
C323       C    0.6707513518    0.0872341556    0.1568066539          0.3708
C324       C    0.7103534997    0.1056173658    0.1146840150          0.3708
C325       C    0.7062332685    0.1019930747    0.0412373329          0.3708
C326       C    0.6625108894    0.0799855733    0.0099132897          0.3708
C327       C    0.6229087416    0.0616023630    0.0520359286          0.3708
C328       C    0.6270289727    0.0652266542    0.1254826107          0.3708
H329       H    0.6738013930    0.0899170724    0.2111762757          0.3708
H330       H    0.7355465072    0.1156001469    0.0100559809          0.3708
H331       H    0.6594608482    0.0773026564    0.9555436679          0.3708
H332       H    0.5977157340    0.0516195820    0.1566639627          0.3708
C313       C    0.2082847431    0.8341043205    0.6156244054          0.3708
C314       C    0.1780475089    0.8416865913    0.6569073034          0.3708
C315       C    0.1460147243    0.8510777660    0.6246254623          0.3708
C316       C    0.1442191739    0.8528866698    0.5510607230          0.3708
C317       C    0.1744564081    0.8453043990    0.5097778249          0.3708
C318       C    0.2064891927    0.8359132243    0.5420596661          0.3708
H319       H    0.2319973239    0.8271524120    0.6395213527          0.3708
H320       H    0.1236322172    0.8566904331    0.6551818951          0.3708
H321       H    0.1205065931    0.8598385783    0.5271637757          0.3708
H322       H    0.2288716998    0.8303005572    0.5115032333          0.3708
C303       C    0.1922798898    0.8614072001    0.0465605142          0.3708
C304       C    0.1552139647    0.8260422472    0.0097758030          0.3708
C305       C    0.1199474623    0.7888910715    0.0465579632          0.3708
C306       C    0.1217468851    0.7871048487    0.1201248344          0.3708
C307       C    0.1588128102    0.8224698017    0.1569095455          0.3708
C308       C    0.1940793126    0.8596209774    0.1201273854          0.3708
H309       H    0.2183862617    0.8889087198    0.0193321619          0.3708
H310       H    0.0925102802    0.7627128833    0.0193312148          0.3708
H311       H    0.0956405132    0.7596033291    0.1473531867          0.3708
H312       H    0.2215164947    0.8857991656    0.1473541338          0.3708
C293       C    0.3016044322    0.8708511888    0.9327096084          0.3708
C294       C    0.2895738812    0.8951818308    0.8853556002          0.3708
C295       C    0.3212665367    0.9412394814    0.8693236339          0.3708
C296       C    0.3649897433    0.9629664900    0.9006456757          0.3708
C297       C    0.3770202943    0.9386358479    0.9479996838          0.3708
C298       C    0.3453276388    0.8925781973    0.9640316502          0.3708
H299       H    0.2781436352    0.8367565643    0.9445774277          0.3708
H300       H    0.3123625686    0.9592503938    0.8342718580          0.3708
H301       H    0.3884505403    0.9970611145    0.8887778564          0.3708
H302       H    0.3542316069    0.8745672850    0.9990834261          0.3708
C283       C    0.8138017241    0.6957147926    0.8764016068          0.3708
C284       C    0.8218725035    0.6630845990    0.8431325730          0.3708
C285       C    0.8317277694    0.6340218463    0.8834289356          0.3708
C286       C    0.8335122559    0.6375892872    0.9569943319          0.3708
C287       C    0.8254414765    0.6702194808    0.9902633657          0.3708
C288       C    0.8155862106    0.6992822335    0.9499670031          0.3708
H289       H    0.8065062675    0.7172287784    0.8465718319          0.3708
H290       H    0.8377020435    0.6098681732    0.8588045903          0.3708
H291       H    0.8408077125    0.6160753015    0.9868241068          0.3708
H292       H    0.8096119365    0.7234359066    0.9745913484          0.3708
C273       C    0.8641194773    0.7101481970    0.4486686186          0.3708
C274       C    0.8447140348    0.6702670180    0.4902624601          0.3708
C275       C    0.8235072695    0.6267573705    0.4582979024          0.3708
C276       C    0.8217059467    0.6231289021    0.3847395032          0.3708
C277       C    0.8411113893    0.6630100811    0.3431456616          0.3708
C278       C    0.8623181546    0.7065197285    0.3751102193          0.3708
H279       H    0.8798179919    0.7423566373    0.4723306938          0.3708
H280       H    0.8091427588    0.5972360866    0.4890845045          0.3708
H281       H    0.8060074321    0.5909204618    0.3610774280          0.3708
H282       H    0.8766826653    0.7360410125    0.3443236172          0.3708
C263       C    0.6718667047    0.5733170986    0.6530708986          0.3708
C264       C    0.7103575569    0.6053578802    0.6146823220          0.3708
C265       C    0.7051261491    0.6156621357    0.5449685094          0.3708
C266       C    0.6614038890    0.5939256097    0.5136432734          0.3708
C267       C    0.6229130368    0.5618848281    0.5520318501          0.3708
C268       C    0.6281444446    0.5515805726    0.6217456627          0.3708
H269       H    0.6757393053    0.5656892731    0.7046772274          0.3708
H270       H    0.7336167756    0.6393789344    0.5165512151          0.3708
H271       H    0.6575312884    0.6015534352    0.4620369446          0.3708
H272       H    0.5996538181    0.5278637739    0.6501629569          0.3708
C253       C    0.9613577555    0.7431477358    0.7887731653          0.3708
C254       C    0.9562397196    0.7282961918    0.7187046131          0.3708
C255       C    0.9948465364    0.7354294771    0.6799524066          0.3708
C256       C    0.0385713891    0.7574143063    0.7112687523          0.3708
C257       C    0.0436894250    0.7722658503    0.7813373045          0.3708
C258       C    0.0050826082    0.7651325650    0.8200895110          0.3708
H259       H    0.9327786833    0.7378672519    0.8174598636          0.3708
H260       H    0.9910594062    0.7244366428    0.6280866868          0.3708
H261       H    0.0671504613    0.7626947902    0.6825820540          0.3708
H262       H    0.0088697384    0.7761253993    0.8719552307          0.3708
loop_
_geom_bond_atom_site_label_1
_geom_bond_atom_site_label_2
_geom_bond_distance
_geom_bond_site_symmetry_2
_ccdc_geom_bond_type
O1          Cu9 1.951       .   S
O1          C11 1.250       .   A
O2          Cu9 1.951       .   S
O2          C12 1.250       .   A
O3          Cu9 1.951       .   S
O3          C13 1.250       .   A
O4          Cu9 1.951       .   S
O4          C14 1.250       .   A
O5         Cu10 1.951       .   S
O5          C14 1.250       .   A
O6         Cu10 1.951       .   S
O6          C13 1.251       .   A
O7         Cu10 1.951       .   S
O7          C12 1.250       .   A
O8         Cu10 1.951       .   S
O8          C11 1.250       .   A
Cu9        Cu10 2.630       .   S
C11        C254 1.592       .   S
C12        C264 1.593       .   S
C13        C284 1.208       .   S
C14        C274 1.208       .   S
O15        Cu23 1.951       .   S
O15         C25 1.250       .   A
O16        Cu23 1.951       .   S
O16         C26 1.250       .   A
O17        Cu23 1.951       .   S
O17         C27 1.250       .   A
O18        Cu23 1.951       .   S
O18         C28 1.250       .   A
O19        Cu24 1.951       .   S
O19         C28 1.250       .   A
O20        Cu24 1.951       .   S
O20         C27 1.251       .   A
O21        Cu24 1.951       .   S
O21         C26 1.250       .   A
O22        Cu24 1.951       .   S
O22         C25 1.250       .   A
Cu23       Cu24 2.630       .   S
C25        C257 1.592   1_455   S
C26        C294 1.593       .   S
C27        C314 1.208       .   S
C28        C304 1.208       .   S
O29        Cu37 1.951       .   S
O29         C39 1.250       .   A
O30        Cu37 1.951       .   S
O30         C40 1.250       .   A
O31        Cu37 1.951       .   S
O31         C41 1.250       .   A
O32        Cu37 1.951       .   S
O32         C42 1.250       .   A
O33        Cu38 1.951       .   S
O33         C42 1.250       .   A
O34        Cu38 1.951       .   S
O34         C41 1.251       .   A
O35        Cu38 1.951       .   S
O35         C40 1.250       .   A
O36        Cu38 1.951       .   S
O36         C39 1.250       .   A
Cu37       Cu38 2.630       .   S
C39        C327 1.593       .   S
C40        C297 1.593   1_554   S
C41        C337 1.208       .   S
C42        C344 1.208       .   S
O43        Cu51 1.951       .   S
O43         C53 1.250       .   A
O44        Cu51 1.951       .   S
O44         C54 1.250       .   A
O45        Cu51 1.951       .   S
O45         C55 1.250       .   A
O46        Cu51 1.951       .   S
O46         C56 1.250       .   A
O47        Cu52 1.951       .   S
O47         C56 1.250       .   A
O48        Cu52 1.951       .   S
O48         C55 1.251       .   A
O49        Cu52 1.951       .   S
O49         C54 1.250       .   A
O50        Cu52 1.951       .   S
O50         C53 1.250       .   A
Cu51       Cu52 2.630       .   S
C53        C354 1.593       .   S
C54        C367 1.592       .   S
C55        C384 1.208       .   S
C56        C374 1.208       .   S
O57        Cu65 1.951       .   S
O57         C67 1.250       .   A
O58        Cu65 1.951       .   S
O58         C68 1.250       .   A
O59        Cu65 1.951       .   S
O59         C69 1.250       .   A
O60        Cu65 1.951       .   S
O60         C70 1.250       .   A
O61        Cu66 1.951       .   S
O61         C70 1.250       .   A
O62        Cu66 1.951       .   S
O62         C69 1.251       .   A
O63        Cu66 1.951       .   S
O63         C68 1.250       .   A
O64        Cu66 1.951       .   S
O64         C67 1.250       .   A
Cu65       Cu66 2.630       .   S
C67        C324 1.593   1_545   S
C68        C364 1.592   1_655   S
C69        C404 1.208       .   S
C70        C394 1.208       .   S
O71        Cu79 1.951       .   S
O71         C81 1.250       .   A
O72        Cu79 1.951       .   S
O72         C82 1.250       .   A
O73        Cu79 1.951       .   S
O73         C83 1.250       .   A
O74        Cu79 1.951       .   S
O74         C84 1.250       .   A
O75        Cu80 1.951       .   S
O75         C84 1.250       .   A
O76        Cu80 1.951       .   S
O76         C83 1.251       .   A
O77        Cu80 1.951       .   S
O77         C82 1.250       .   A
O78        Cu80 1.951       .   S
O78         C81 1.250       .   A
Cu79       Cu80 2.630       .   S
C81        C267 1.593       .   S
C82        C357 1.593       .   S
C83        C424 1.208       .   S
C84        C414 1.208       .   S
O85        Cu93 1.951       .   S
O85         C95 1.250       .   A
O86        Cu93 1.951       .   S
O86         C96 1.250       .   A
O87        Cu93 1.951       .   S
O87         C97 1.250       .   A
O88        Cu93 1.951       .   S
O88         C98 1.250       .   A
O89        Cu94 1.951       .   S
O89         C98 1.250       .   A
O90        Cu94 1.951       .   S
O90         C97 1.251       .   A
O91        Cu94 1.951       .   S
O91         C96 1.250       .   A
O92        Cu94 1.951       .   S
O92         C95 1.250       .   A
Cu93       Cu94 2.630       .   S
C95        C444 1.592       .   S
C96        C437 1.593       .   S
C97        C377 1.208   1_556   S
C98        C387 1.208       .   S
O99       Cu107 1.951       .   S
O99        C109 1.250       .   A
O100      Cu107 1.951       .   S
O100       C110 1.250       .   A
O101      Cu107 1.951       .   S
O101       C111 1.250       .   A
O102      Cu107 1.951       .   S
O102       C112 1.250       .   A
O103      Cu108 1.951       .   S
O103       C112 1.250       .   A
O104      Cu108 1.951       .   S
O104       C111 1.251       .   A
O105      Cu108 1.951       .   S
O105       C110 1.250       .   A
O106      Cu108 1.951       .   S
O106       C109 1.250       .   A
Cu107     Cu108 2.630       .   S
C109       C434 1.593       .   S
C110       C454 1.592       .   S
C111       C474 1.208       .   S
C112       C464 1.208       .   S
O113      Cu121 1.951       .   S
O113       C123 1.250       .   A
O114      Cu121 1.951       .   S
O114       C124 1.250       .   A
O115      Cu121 1.951       .   S
O115       C125 1.250       .   A
O116      Cu121 1.951       .   S
O116       C126 1.250       .   A
O117      Cu122 1.951       .   S
O117       C126 1.250       .   A
O118      Cu122 1.951       .   S
O118       C125 1.251       .   A
O119      Cu122 1.951       .   S
O119       C124 1.250       .   A
O120      Cu122 1.951       .   S
O120       C123 1.250       .   A
Cu121     Cu122 2.630       .   S
C123       C447 1.592   1_554   S
C124       C484 1.592       .   S
C125       C504 1.208       .   S
C126       C497 1.208       .   S
O127      Cu135 1.951       .   S
O127       C137 1.250       .   A
O128      Cu135 1.951       .   S
O128       C138 1.250       .   A
O129      Cu135 1.951       .   S
O129       C139 1.250       .   A
O130      Cu135 1.951       .   S
O130       C140 1.250       .   A
O131      Cu136 1.951       .   S
O131       C140 1.250       .   A
O132      Cu136 1.951       .   S
O132       C139 1.251       .   A
O133      Cu136 1.951       .   S
O133       C138 1.250       .   A
O134      Cu136 1.951       .   S
O134       C137 1.250       .   A
Cu135     Cu136 2.630       .   S
C137       C514 1.592       .   S
C138       C524 1.593       .   S
C139       C544 1.208       .   S
C140       C534 1.208       .   S
O141      Cu149 1.951       .   S
O141       C151 1.250       .   A
O142      Cu149 1.951       .   S
O142       C152 1.250       .   A
O143      Cu149 1.951       .   S
O143       C153 1.250       .   A
O144      Cu149 1.951       .   S
O144       C154 1.250       .   A
O145      Cu150 1.951       .   S
O145       C154 1.250       .   A
O146      Cu150 1.951       .   S
O146       C153 1.251       .   A
O147      Cu150 1.951       .   S
O147       C152 1.250       .   A
O148      Cu150 1.951       .   S
O148       C151 1.250       .   A
Cu149     Cu150 2.630       .   S
C151       C527 1.593       .   S
C152       C487 1.592   1_655   S
C153       C277 1.208       .   S
C154       C287 1.208   1_554   S
O155      Cu163 1.951       .   S
O155       C165 1.250       .   A
O156      Cu163 1.951       .   S
O156       C166 1.250       .   A
O157      Cu163 1.951       .   S
O157       C167 1.250       .   A
O158      Cu163 1.951       .   S
O158       C168 1.250       .   A
O159      Cu164 1.951       .   S
O159       C168 1.250       .   A
O160      Cu164 1.951       .   S
O160       C167 1.251       .   A
O161      Cu164 1.951       .   S
O161       C166 1.250       .   A
O162      Cu164 1.951       .   S
O162       C165 1.250       .   A
Cu163     Cu164 2.630       .   S
C165       C517 1.592       .   S
C166       C457 1.592   1_565   S
C167       C334 1.208       .   S
C168       C347 1.208   1_556   S
O169      Cu177 1.951       .   S
O169       C179 1.250       .   A
O170      Cu177 1.951       .   S
O170       C180 1.250       .   A
O171      Cu177 1.951       .   S
O171       C181 1.250       .   A
O172      Cu177 1.951       .   S
O172       C182 1.250       .   A
O173      Cu178 1.951       .   S
O173       C182 1.250       .   A
O174      Cu178 1.951       .   S
O174       C181 1.251       .   A
O175      Cu178 1.951       .   S
O175       C180 1.250       .   A
O176      Cu178 1.951       .   S
O176       C179 1.250       .   A
Cu177     Cu178 2.630       .   S
C179       C564 1.592       .   S
C180       C554 1.593       .   S
C181       C467 1.208       .   S
C182       C477 1.208   1_554   S
O183      Cu191 1.951       .   S
O183       C193 1.250       .   A
O184      Cu191 1.951       .   S
O184       C194 1.250       .   A
O185      Cu191 1.951       .   S
O185       C195 1.250       .   A
O186      Cu191 1.951       .   S
O186       C196 1.250       .   A
O187      Cu192 1.951       .   S
O187       C196 1.250       .   A
O188      Cu192 1.951       .   S
O188       C195 1.251       .   A
O189      Cu192 1.951       .   S
O189       C194 1.250       .   A
O190      Cu192 1.951       .   S
O190       C193 1.250       .   A
Cu191     Cu192 2.630       .   S
C193       C557 1.593       .   S
C194       C574 1.593       .   S
C195       C417 1.208       .   S
C196       C427 1.208   1_554   S
O197      Cu205 1.951       .   S
O197       C207 1.250       .   A
O198      Cu205 1.951       .   S
O198       C208 1.250       .   A
O199      Cu205 1.951       .   S
O199       C209 1.250       .   A
O200      Cu205 1.951       .   S
O200       C210 1.250       .   A
O201      Cu206 1.951       .   S
O201       C210 1.250       .   A
O202      Cu206 1.951       .   S
O202       C209 1.251       .   A
O203      Cu206 1.951       .   S
O203       C208 1.250       .   A
O204      Cu206 1.951       .   S
O204       C207 1.250       .   A
Cu205     Cu206 2.630       .   S
C207       C567 1.592   1_565   S
C208       C584 1.593       .   S
C209       C307 1.208   1_554   S
C210       C317 1.208       .   S
O211      Cu219 1.951       .   S
O211       C221 1.250       .   A
O212      Cu219 1.951       .   S
O212       C222 1.250       .   A
O213      Cu219 1.951       .   S
O213       C223 1.250       .   A
O214      Cu219 1.951       .   S
O214       C224 1.250       .   A
O215      Cu220 1.951       .   S
O215       C224 1.250       .   A
O216      Cu220 1.951       .   S
O216       C223 1.251       .   A
O217      Cu220 1.951       .   S
O217       C222 1.250       .   A
O218      Cu220 1.951       .   S
O218       C221 1.250       .   A
Cu219     Cu220 2.630       .   S
C221       C587 1.593       .   S
C222       C594 1.593       .   S
C223       C494 1.208       .   S
C224       C507 1.208   1_556   S
O225      Cu233 1.951       .   S
O225       C235 1.250       .   A
O226      Cu233 1.951       .   S
O226       C236 1.250       .   A
O227      Cu233 1.951       .   S
O227       C237 1.250       .   A
O228      Cu233 1.951       .   S
O228       C238 1.250       .   A
O229      Cu234 1.951       .   S
O229       C238 1.250       .   A
O230      Cu234 1.951       .   S
O230       C237 1.251       .   A
O231      Cu234 1.951       .   S
O231       C236 1.250       .   A
O232      Cu234 1.951       .   S
O232       C235 1.250       .   A
Cu233     Cu234 2.630       .   S
C235       C597 1.593   1_655   S
C236       C604 1.593       .   S
C237       C397 1.208       .   S
C238       C407 1.208   1_556   S
O239      Cu247 1.951       .   S
O239       C249 1.250       .   A
O240      Cu247 1.951       .   S
O240       C250 1.250       .   A
O241      Cu247 1.951       .   S
O241       C251 1.250       .   A
O242      Cu247 1.951       .   S
O242       C252 1.250       .   A
O243      Cu248 1.951       .   S
O243       C252 1.250       .   A
O244      Cu248 1.951       .   S
O244       C251 1.251       .   A
O245      Cu248 1.951       .   S
O245       C250 1.250       .   A
O246      Cu248 1.951       .   S
O246       C249 1.250       .   A
Cu247     Cu248 2.630       .   S
C249       C577 1.593   1_556   S
C250       C607 1.593   1_565   S
C251       C537 1.208   1_556   S
C252       C547 1.208       .   S
C603       C604 1.540       .   A
C603       C608 1.540       .   A
C603       H609 1.140       .   S
C604       C605 1.540       .   A
C605       C606 1.540       .   A
C605       H610 1.140       .   S
C606       C607 1.540       .   A
C606       H611 1.140       .   S
C607       C608 1.540       .   A
C608       H612 1.140       .   S
C593       C594 1.540       .   A
C593       C598 1.540       .   A
C593       H599 1.140       .   S
C594       C595 1.540       .   A
C595       C596 1.540       .   A
C595       H600 1.140       .   S
C596       C597 1.540       .   A
C596       H601 1.140       .   S
C597       C598 1.540       .   A
C598       H602 1.140       .   S
C583       C584 1.540       .   A
C583       C588 1.540       .   A
C583       H589 1.140       .   S
C584       C585 1.540       .   A
C585       C586 1.540       .   A
C585       H590 1.140       .   S
C586       C587 1.540       .   A
C586       H591 1.140       .   S
C587       C588 1.540       .   A
C588       H592 1.140       .   S
C573       C574 1.540       .   A
C573       C578 1.540       .   A
C573       H579 1.140       .   S
C574       C575 1.540       .   A
C575       C576 1.540       .   A
C575       H580 1.140       .   S
C576       C577 1.540       .   A
C576       H581 1.140       .   S
C577       C578 1.540       .   A
C578       H582 1.140       .   S
C563       C564 1.540       .   A
C563       C568 1.540       .   A
C563       H569 1.140       .   S
C564       C565 1.540       .   A
C565       C566 1.540       .   A
C565       H570 1.140       .   S
C566       C567 1.540       .   A
C566       H571 1.140       .   S
C567       C568 1.540       .   A
C568       H572 1.140       .   S
C553       C554 1.540       .   A
C553       C558 1.540       .   A
C553       H559 1.140       .   S
C554       C555 1.540       .   A
C555       C556 1.540       .   A
C555       H560 1.140       .   S
C556       C557 1.540       .   A
C556       H561 1.140       .   S
C557       C558 1.540       .   A
C558       H562 1.140       .   S
C543       C544 1.540       .   A
C543       C548 1.540       .   A
C543       H549 1.140       .   S
C544       C545 1.540       .   A
C545       C546 1.540       .   A
C545       H550 1.140       .   S
C546       C547 1.540       .   A
C546       H551 1.140       .   S
C547       C548 1.540       .   A
C548       H552 1.140       .   S
C533       C534 1.540       .   A
C533       C538 1.540       .   A
C533       H539 1.140       .   S
C534       C535 1.540       .   A
C535       C536 1.540       .   A
C535       H540 1.140       .   S
C536       C537 1.540       .   A
C536       H541 1.140       .   S
C537       C538 1.540       .   A
C538       H542 1.140       .   S
C523       C524 1.540       .   A
C523       C528 1.540       .   A
C523       H529 1.140       .   S
C524       C525 1.540       .   A
C525       C526 1.540       .   A
C525       H530 1.140       .   S
C526       C527 1.540       .   A
C526       H531 1.140       .   S
C527       C528 1.540       .   A
C528       H532 1.140       .   S
C513       C514 1.540       .   A
C513       C518 1.540       .   A
C513       H519 1.140       .   S
C514       C515 1.540       .   A
C515       C516 1.540       .   A
C515       H520 1.140       .   S
C516       C517 1.540       .   A
C516       H521 1.140       .   S
C517       C518 1.540       .   A
C518       H522 1.140       .   S
C503       C504 1.540       .   A
C503       C508 1.540       .   A
C503       H509 1.140       .   S
C504       C505 1.540       .   A
C505       C506 1.540       .   A
C505       H510 1.140       .   S
C506       C507 1.540       .   A
C506       H511 1.140       .   S
C507       C508 1.540       .   A
C508       H512 1.140       .   S
C493       C494 1.540       .   A
C493       C498 1.540       .   A
C493       H499 1.140       .   S
C494       C495 1.540       .   A
C495       C496 1.540       .   A
C495       H500 1.140       .   S
C496       C497 1.540       .   A
C496       H501 1.140       .   S
C497       C498 1.540       .   A
C498       H502 1.140       .   S
C483       C484 1.540       .   A
C483       C488 1.540       .   A
C483       H489 1.140       .   S
C484       C485 1.540       .   A
C485       C486 1.540       .   A
C485       H490 1.140       .   S
C486       C487 1.540       .   A
C486       H491 1.140       .   S
C487       C488 1.540       .   A
C488       H492 1.140       .   S
C473       C474 1.540       .   A
C473       C478 1.540       .   A
C473       H479 1.140       .   S
C474       C475 1.540       .   A
C475       C476 1.540       .   A
C475       H480 1.140       .   S
C476       C477 1.540       .   A
C476       H481 1.140       .   S
C477       C478 1.540       .   A
C478       H482 1.140       .   S
C463       C464 1.540       .   A
C463       C468 1.540       .   A
C463       H469 1.140       .   S
C464       C465 1.540       .   A
C465       C466 1.540       .   A
C465       H470 1.140       .   S
C466       C467 1.540       .   A
C466       H471 1.140       .   S
C467       C468 1.540       .   A
C468       H472 1.140       .   S
C453       C454 1.540       .   A
C453       C458 1.540       .   A
C453       H459 1.140       .   S
C454       C455 1.540       .   A
C455       C456 1.540       .   A
C455       H460 1.140       .   S
C456       C457 1.540       .   A
C456       H461 1.140       .   S
C457       C458 1.540       .   A
C458       H462 1.140       .   S
C443       C444 1.540       .   A
C443       C448 1.540       .   A
C443       H449 1.140       .   S
C444       C445 1.540       .   A
C445       C446 1.540       .   A
C445       H450 1.140       .   S
C446       C447 1.540       .   A
C446       H451 1.140       .   S
C447       C448 1.540       .   A
C448       H452 1.140       .   S
C433       C434 1.540       .   A
C433       C438 1.540       .   A
C433       H439 1.140       .   S
C434       C435 1.540       .   A
C435       C436 1.540       .   A
C435       H440 1.140       .   S
C436       C437 1.540       .   A
C436       H441 1.140       .   S
C437       C438 1.540       .   A
C438       H442 1.140       .   S
C423       C424 1.540       .   A
C423       C428 1.540       .   A
C423       H429 1.140       .   S
C424       C425 1.540       .   A
C425       C426 1.540       .   A
C425       H430 1.140       .   S
C426       C427 1.540       .   A
C426       H431 1.140       .   S
C427       C428 1.540       .   A
C428       H432 1.140       .   S
C413       C414 1.540       .   A
C413       C418 1.540       .   A
C413       H419 1.140       .   S
C414       C415 1.540       .   A
C415       C416 1.540       .   A
C415       H420 1.140       .   S
C416       C417 1.540       .   A
C416       H421 1.140       .   S
C417       C418 1.540       .   A
C418       H422 1.140       .   S
C403       C404 1.540       .   A
C403       C408 1.540       .   A
C403       H409 1.140       .   S
C404       C405 1.540       .   A
C405       C406 1.540       .   A
C405       H410 1.140       .   S
C406       C407 1.540       .   A
C406       H411 1.140       .   S
C407       C408 1.540       .   A
C408       H412 1.140       .   S
C393       C394 1.540       .   A
C393       C398 1.540       .   A
C393       H399 1.140       .   S
C394       C395 1.540       .   A
C395       C396 1.540       .   A
C395       H400 1.140       .   S
C396       C397 1.540       .   A
C396       H401 1.140       .   S
C397       C398 1.540       .   A
C398       H402 1.140       .   S
C383       C384 1.540       .   A
C383       C388 1.540       .   A
C383       H389 1.140       .   S
C384       C385 1.540       .   A
C385       C386 1.540       .   A
C385       H390 1.140       .   S
C386       C387 1.540       .   A
C386       H391 1.140       .   S
C387       C388 1.540       .   A
C388       H392 1.140       .   S
C373       C374 1.540       .   A
C373       C378 1.540       .   A
C373       H379 1.140       .   S
C374       C375 1.540       .   A
C375       C376 1.540       .   A
C375       H380 1.140       .   S
C376       C377 1.540       .   A
C376       H381 1.140       .   S
C377       C378 1.540       .   A
C378       H382 1.140       .   S
C363       C364 1.540       .   A
C363       C368 1.540       .   A
C363       H369 1.140       .   S
C364       C365 1.540       .   A
C365       C366 1.540       .   A
C365       H370 1.140       .   S
C366       C367 1.540       .   A
C366       H371 1.140       .   S
C367       C368 1.540       .   A
C368       H372 1.140       .   S
C353       C354 1.540       .   A
C353       C358 1.540       .   A
C353       H359 1.140       .   S
C354       C355 1.540       .   A
C355       C356 1.540       .   A
C355       H360 1.140       .   S
C356       C357 1.540       .   A
C356       H361 1.140       .   S
C357       C358 1.540       .   A
C358       H362 1.140       .   S
C343       C344 1.540       .   A
C343       C348 1.540       .   A
C343       H349 1.140       .   S
C344       C345 1.540       .   A
C345       C346 1.540       .   A
C345       H350 1.140       .   S
C346       C347 1.540       .   A
C346       H351 1.140       .   S
C347       C348 1.540       .   A
C348       H352 1.140       .   S
C333       C334 1.540       .   A
C333       C338 1.540       .   A
C333       H339 1.140       .   S
C334       C335 1.540       .   A
C335       C336 1.540       .   A
C335       H340 1.140       .   S
C336       C337 1.540       .   A
C336       H341 1.140       .   S
C337       C338 1.540       .   A
C338       H342 1.140       .   S
C323       C324 1.540       .   A
C323       C328 1.540       .   A
C323       H329 1.140       .   S
C324       C325 1.540       .   A
C325       C326 1.540       .   A
C325       H330 1.140       .   S
C326       C327 1.540       .   A
C326       H331 1.140       .   S
C327       C328 1.540       .   A
C328       H332 1.140       .   S
C313       C314 1.540       .   A
C313       C318 1.540       .   A
C313       H319 1.140       .   S
C314       C315 1.540       .   A
C315       C316 1.540       .   A
C315       H320 1.140       .   S
C316       C317 1.540       .   A
C316       H321 1.140       .   S
C317       C318 1.540       .   A
C318       H322 1.140       .   S
C303       C304 1.540       .   A
C303       C308 1.540       .   A
C303       H309 1.140       .   S
C304       C305 1.540       .   A
C305       C306 1.540       .   A
C305       H310 1.140       .   S
C306       C307 1.540       .   A
C306       H311 1.140       .   S
C307       C308 1.540       .   A
C308       H312 1.140       .   S
C293       C294 1.540       .   A
C293       C298 1.540       .   A
C293       H299 1.140       .   S
C294       C295 1.540       .   A
C295       C296 1.540       .   A
C295       H300 1.140       .   S
C296       C297 1.540       .   A
C296       H301 1.140       .   S
C297       C298 1.540       .   A
C298       H302 1.140       .   S
C283       C284 1.540       .   A
C283       C288 1.540       .   A
C283       H289 1.140       .   S
C284       C285 1.540       .   A
C285       C286 1.540       .   A
C285       H290 1.140       .   S
C286       C287 1.540       .   A
C286       H291 1.140       .   S
C287       C288 1.540       .   A
C288       H292 1.140       .   S
C273       C274 1.540       .   A
C273       C278 1.540       .   A
C273       H279 1.140       .   S
C274       C275 1.540       .   A
C275       C276 1.540       .   A
C275       H280 1.140       .   S
C276       C277 1.540       .   A
C276       H281 1.140       .   S
C277       C278 1.540       .   A
C278       H282 1.140       .   S
C263       C264 1.540       .   A
C263       C268 1.540       .   A
C263       H269 1.140       .   S
C264       C265 1.540       .   A
C265       C266 1.540       .   A
C265       H270 1.140       .   S
C266       C267 1.540       .   A
C266       H271 1.140       .   S
C267       C268 1.540       .   A
C268       H272 1.140       .   S
C253       C254 1.540       .   A
C253       C258 1.540       .   A
C253       H259 1.140       .   S
C254       C255 1.540       .   A
C255       C256 1.540       .   A
C255       H260 1.140       .   S
C256       C257 1.540       .   A
C256       H261 1.140       .   S
C257       C258 1.540       .   A
C258       H262 1.140       .   S
