data_vba_v1-4c_Cu_1_Ch_1-1B_4H_Ch
_audit_creation_date              2024-08-05
_audit_creation_method            'tobacco_3.0'
_symmetry_space_group_name_H-M    'P1'
_symmetry_Int_Tables_number       1
_symmetry_cell_setting            triclinic
loop_
_symmetry_equiv_pos_as_xyz
  x,y,z
_cell_length_a                    20.682085801495877
_cell_length_b                    38.88221898835742
_cell_length_c                    38.88221898835742
_cell_angle_alpha                 89.99982575207552
_cell_angle_beta                  90.00191711980031
_cell_angle_gamma                 90.00045329016089
loop_
_atom_site_label
_atom_site_type_symbol
_atom_site_fract_x
_atom_site_fract_y
_atom_site_fract_z
_atom_site_charge
O1         O    0.2696684037    0.9712561789    0.4519854451         -1.3557
O2         O    0.2055462547    0.9617761248    0.5452951439         -1.3655
O3         O    0.3121155003    0.9385206062    0.5102889729         -1.2517
O4         O    0.1630913968    0.9945133968    0.4869941708         -1.3358
O5         O    0.1090767384    0.9474810931    0.4717135817         -1.3313
O6         O    0.2580978346    0.8914907652    0.4950041607         -1.2439
O7         O    0.1515315963    0.9147438211    0.5300145549         -1.3689
O8         O    0.2156537453    0.9242238752    0.4367048561         -1.3567
Cu9       Cu    0.2425353953    0.9708076262    0.5000373831          1.0456
Cu10      Cu    0.1786646047    0.9151923738    0.4819626169          1.0433
C11        C    0.2521159034    0.9491368653    0.4305868613          0.3063
C12        C    0.1690840966    0.9368631347    0.5514131387          0.2977
C13        C    0.3070805230    0.9067531934    0.5060783922          0.2191
C14        C    0.1141194770    0.9792468066    0.4759216078          0.2819
O15        O    0.4147277817    0.6961178680    0.4519935279         -1.3557
O16        O    0.4788551618    0.7056061808    0.5453035951         -1.3655
O17        O    0.3722893050    0.7288632597    0.5102916071         -1.2517
O18        O    0.5213013996    0.6728590898    0.4870080709         -1.3358
O19        O    0.5753248969    0.7198863977    0.4717225844         -1.3313
O20        O    0.4263158088    0.7758881041    0.4950018978         -1.2439
O21        O    0.5328786590    0.7526334887    0.5300181085         -1.3689
O22        O    0.4687512790    0.7431451759    0.4367080414         -1.3567
Cu23      Cu    0.4418625993    0.6965710063    0.5000460970          1.0456
Cu24      Cu    0.5057438415    0.7521803504    0.4819655395          1.0433
C25        C    0.4322839303    0.7182334660    0.4305924409          0.3063
C26        C    0.5153225104    0.7305178908    0.5514191956          0.2977
C27        C    0.3773304712    0.7606298517    0.5060769172          0.2191
C28        C    0.5702759696    0.6881215050    0.4759347193          0.2819
O29        O    0.4147142022    0.9712538270    0.2607313593         -1.3557
O30        O    0.4788482481    0.9617730234    0.1674241627         -1.3655
O31        O    0.3722775992    0.9385144275    0.2024278178         -1.2517
O32        O    0.5212926127    0.9945141224    0.2257251498         -1.3358
O33        O    0.5753108670    0.9474845676    0.2410094898         -1.3313
O34        O    0.4262988598    0.8914873356    0.2177163809         -1.2439
O35        O    0.5328665024    0.9147434685    0.1827085027         -1.3689
O36        O    0.4687324565    0.9242242721    0.2760156993         -1.3567
Cu37      Cu    0.4418528313    0.9708046486    0.2126803302          1.0456
Cu38      Cu    0.5057278733    0.9151926469    0.2307595318          1.0433
C39        C    0.4322667464    0.9491359983    0.2821314497          0.3063
C40        C    0.5153139582    0.9368612972    0.1613084123          0.2977
C41        C    0.3773157134    0.9067473713    0.2066399007          0.2191
C42        C    0.5702649912    0.9792499242    0.2367999613          0.2819
O43        O    0.2697094069    0.6961062005    0.2607290281         -1.3557
O44        O    0.2055760188    0.7055919705    0.1674198678         -1.3655
O45        O    0.3121410930    0.7288533410    0.2024301329         -1.2517
O46        O    0.1631365716    0.6728431303    0.2257162081         -1.3358
O47        O    0.1091085577    0.7198682442    0.2410022427         -1.3313
O48        O    0.2581100731    0.7758759913    0.2177203903         -1.2439
O49        O    0.1515480050    0.7526170845    0.1827059024         -1.3689
O50        O    0.2156813930    0.7431313144    0.2760150627         -1.3567
Cu51      Cu    0.2425719973    0.6965582676    0.2126768625          1.0456
Cu52      Cu    0.1786854145    0.7521650174    0.2307580680          1.0433
C53        C    0.2521518857    0.7182210764    0.2821302555          0.3063
C54        C    0.1691055261    0.7305022085    0.1613046750          0.2977
C55        C    0.3070965527    0.7606197268    0.2066447225          0.2191
C56        C    0.1141608591    0.6881035582    0.2367902080          0.2819
O57        O    0.4147467707    0.4711556229    0.7607404883         -1.3557
O58        O    0.4788814744    0.4616749910    0.6674334022         -1.3655
O59        O    0.3723092427    0.4384174937    0.7024364240         -1.2517
O60        O    0.5213267640    0.4944148197    0.7257349122         -1.3358
O61        O    0.5753424901    0.4473843272    0.7410188951         -1.3313
O62        O    0.4263279753    0.3913894642    0.7177246300         -1.2439
O63        O    0.5328972005    0.4146444985    0.6827173851         -1.3689
O64        O    0.4687624968    0.4241251305    0.7760244712         -1.3567
Cu65      Cu    0.4418859594    0.4707066159    0.7126895471          1.0456
Cu66      Cu    0.5057580118    0.4150935055    0.7307683264          1.0433
C67        C    0.4322979538    0.4490373001    0.7821403839          0.3063
C68        C    0.5153460174    0.4367628213    0.6613174896          0.2977
C69        C    0.3773457234    0.4066503180    0.7066481579          0.2191
C70        C    0.5702982479    0.4791498035    0.7368097155          0.2819
O71        O    0.2697125339    0.1960130099    0.7607370368         -1.3557
O72        O    0.2055863497    0.2054989250    0.6674264905         -1.3655
O73        O    0.3121582766    0.2287519227    0.7024364160         -1.2517
O74        O    0.1631328455    0.1727583131    0.7257245565         -1.3358
O75        O    0.1091209633    0.2197899088    0.7410067795         -1.3313
O76        O    0.2581433872    0.2757810553    0.7177228619         -1.2439
O77        O    0.1515744675    0.2525305207    0.6827087135         -1.3689
O78        O    0.2157006517    0.2430446056    0.7760192598         -1.3567
Cu79      Cu    0.2425772545    0.1964645579    0.7126845260          1.0456
Cu80      Cu    0.1787097469    0.2520789726    0.7307612243          1.0433
C81        C    0.2521620167    0.2181311053    0.7821365627          0.3063
C82        C    0.1691249847    0.2304124253    0.6613091877          0.2977
C83        C    0.3071248832    0.2605191019    0.7066487955          0.2191
C84        C    0.1141621182    0.1880244287    0.7367969548          0.2819
O85        O    0.2696351699    0.4711439236    0.9519789397         -1.3557
O86        O    0.2055097438    0.4616622191    0.0452878336         -1.3655
O87        O    0.3120815666    0.4384084933    0.0102826915         -1.2517
O88        O    0.1630555855    0.4943993486    0.9869866362         -1.3358
O89        O    0.1090439060    0.4473663975    0.9717050603         -1.3313
O90        O    0.2580668800    0.3913780050    0.9949968925         -1.2439
O91        O    0.1514980643    0.4146292681    0.0300062576         -1.3689
O92        O    0.2156234904    0.4241109725    0.9366973637         -1.3567
Cu93      Cu    0.2425002510    0.4706946047    0.0000305652          1.0456
Cu94      Cu    0.1786329832    0.4150785870    0.9819546321          1.0433
C95        C    0.2520846423    0.4490245296    0.9305799811          0.3063
C96        C    0.1690485919    0.4367486620    0.0514052162          0.2977
C97        C    0.3070483557    0.4066410421    0.0060718023          0.2191
C98        C    0.1140848785    0.4791321495    0.9759133950          0.2819
O99        O    0.4147368798    0.1960146095    0.9519915118         -1.3557
O100       O    0.4788527822    0.2055005890    0.0453040476         -1.3655
O101       O    0.3722812899    0.2287498873    0.0102917452         -1.2517
O102       O    0.5213161336    0.1727636124    0.9870063692         -1.3358
O103       O    0.5753234963    0.2197980709    0.9717267527         -1.3313
O104       O    0.4262916604    0.2757818830    0.9950079058         -1.2439
O105       O    0.5328601448    0.2525350475    0.0300244310         -1.3689
O106       O    0.4687442424    0.2430490680    0.9367118953         -1.3567
Cu107     Cu    0.4418674305    0.1964659285    0.0000447796          1.0456
Cu108     Cu    0.5057295941    0.2520837286    0.9819711633          1.0433
C109       C    0.4322866531    0.2181341268    0.9305929959          0.3063
C110       C    0.5153103716    0.2304155302    0.0514229470          0.2977
C111       C    0.3773110366    0.2605174166    0.0060802612          0.2191
C112       C    0.5702859880    0.1880322404    0.9759356817          0.2819
O113       O    0.4656795350    0.1741836991    0.5260229443         -1.3557
O114       O    0.4015436576    0.1647027074    0.4327137852         -1.3655
O115       O    0.5081201510    0.1414493670    0.4677190951         -1.2517
O116       O    0.3590952684    0.1974387288    0.4910150831         -1.3358
O117       O    0.4131066160    0.2444709985    0.4757327148         -1.3313
O118       O    0.5621283156    0.1884839459    0.4524409999         -1.2439
O119       O    0.4555550052    0.2117349771    0.4174314170         -1.3689
O120       O    0.5196908827    0.2212159688    0.5107405761         -1.3567
Cu121     Cu    0.4286816452    0.1651507247    0.4807603282          1.0456
Cu122     Cu    0.4925528950    0.2207679515    0.4626940331          1.0433
C123       C    0.5021434855    0.1990980500    0.5321395671          0.3063
C124       C    0.4190910547    0.1868206262    0.4113147941          0.2977
C125       C    0.5570939267    0.1567109450    0.4566492574          0.2191
C126       C    0.3641406135    0.2292077313    0.4868051039          0.2819
O127       O    0.7828624167    0.0025895893    0.4327145997         -1.3557
O128       O    0.7187367859    0.9931046650    0.5260231265         -1.3655
O129       O    0.8253063516    0.9698501150    0.4910165878         -1.2517
O130       O    0.6762850896    0.0258458386    0.4677236930         -1.3358
O131       O    0.6222692145    0.9788150037    0.4524397997         -1.3313
O132       O    0.7712874695    0.9228217432    0.4757284715         -1.2439
O133       O    0.6647209107    0.9460738302    0.5107392332         -1.3689
O134       O    0.7288465416    0.9555587545    0.4174307064         -1.3567
Cu135     Cu    0.7557277783    0.0021384673    0.4807662531          1.0456
Cu136     Cu    0.6918555492    0.9465249523    0.4626875797          1.0433
C137       C    0.7653098215    0.9804717282    0.4113145364          0.3063
C138       C    0.6822735060    0.9681916913    0.5321392964          0.2977
C139       C    0.8202703474    0.9380830045    0.4868040741          0.2191
C140       C    0.6273129801    0.0105804150    0.4566497588          0.2819
O141       O    0.4656475084    0.9931232671    0.6867002779         -1.3557
O142       O    0.4015356096    0.0026087721    0.7800113031         -1.3655
O143       O    0.5081093277    0.0258556960    0.7450025392         -1.2517
O144       O    0.3590660172    0.9698746543    0.7217115934         -1.3358
O145       O    0.4130700174    0.9228394314    0.7369927426         -1.3313
O146       O    0.5621101434    0.9788181641    0.7602794155         -1.2439
O147       O    0.4555396097    0.9555735491    0.7952924524         -1.3689
O148       O    0.5196515086    0.9460880441    0.7019814271         -1.3567
Cu149     Cu    0.4286622792    0.0021587677    0.7319639384          1.0456
Cu150     Cu    0.4925248390    0.9465380485    0.7500287919          1.0433
C151       C    0.5021042496    0.9682067740    0.6805827703          0.3063
C152       C    0.4190828685    0.9804900423    0.8014099599          0.2977
C153       C    0.5570821452    0.0105914150    0.7560710240          0.2191
C154       C    0.3641049730    0.9381054013    0.7259217062          0.2819
O155       O    0.7829121329    0.1646979913    0.7800100997         -1.3557
O156       O    0.7187910209    0.1741790355    0.6866980723         -1.3655
O157       O    0.8253649752    0.1974304379    0.7217073110         -1.2517
O158       O    0.6763304169    0.1414448899    0.7449983062         -1.3358
O159       O    0.6223248270    0.1884799591    0.7602761304         -1.3313
O160       O    0.7713563777    0.2444630446    0.7369893583         -1.2439
O161       O    0.6647854310    0.2212141048    0.7019758965         -1.3689
O162       O    0.7289065431    0.2117330605    0.7952879240         -1.3567
Cu163     Cu    0.7557788155    0.1651467867    0.7319572497          1.0456
Cu164     Cu    0.6919187485    0.2207653093    0.7500287466          1.0433
C165       C    0.7653640142    0.1868185416    0.8014076445          0.3063
C166       C    0.6823335497    0.1990935544    0.6805783517          0.2977
C167       C    0.8203360730    0.2291981658    0.7259170706          0.2191
C168       C    0.6273614910    0.1567139302    0.7560689256          0.2819
O169       O    0.7827547942    0.5025206756    0.9326794516         -1.3557
O170       O    0.7186180747    0.4930343817    0.0259856827         -1.3655
O171       O    0.8251815701    0.4697714403    0.9909794909         -1.2517
O172       O    0.6761835378    0.5257853168    0.9676881980         -1.3358
O173       O    0.6221509464    0.4787616714    0.9523989017         -1.3313
O174       O    0.7711459730    0.4227502586    0.9756859718         -1.2439
O175       O    0.6645854833    0.4460107363    0.0106963865         -1.3689
O176       O    0.7287222027    0.4554970301    0.9173901554         -1.3567
Cu177     Cu    0.7556161365    0.5020682126    0.9807304502          1.0456
Cu178     Cu    0.6917241410    0.4464631993    0.9626453879          1.0433
C179       C    0.7651954753    0.4804066111    0.9112770253          0.3063
C180       C    0.6821448021    0.4681248007    0.0320988128          0.2977
C181       C    0.8201337848    0.4380052484    0.9867640400          0.2191
C182       C    0.6272064926    0.5105261635    0.9566117981          0.2819
O183       O    0.4657673999    0.6741578663    0.0259906540         -1.3557
O184       O    0.4016169247    0.6646787103    0.9326841475         -1.3655
O185       O    0.5081822251    0.6414101708    0.9676889986         -1.2517
O186       O    0.3591943272    0.6974280963    0.9909832515         -1.3358
O187       O    0.4132334794    0.7444493175    0.9756946975         -1.3313
O188       O    0.5622181961    0.6884337022    0.9524047174         -1.2439
O189       O    0.4556560769    0.7116999315    0.9173955934         -1.3689
O190       O    0.5198065521    0.7211790875    0.0107020999         -1.3567
Cu191     Cu    0.4287596734    0.6651268179    0.9807299287          1.0456
Cu192     Cu    0.4926638034    0.7207309799    0.9626563187          1.0433
C193       C    0.5022474053    0.6990664220    0.0321037928          0.3063
C194       C    0.4191760716    0.6867913758    0.9112824546          0.2977
C195       C    0.5571644509    0.6566620144    0.9566163239          0.2191
C196       C    0.3642590259    0.7291957835    0.9867699235          0.2819
O197       O    0.4657685142    0.4930421476    0.1867330928         -1.3557
O198       O    0.4016485361    0.5025283224    0.2800424791         -1.3655
O199       O    0.5082149007    0.5257840381    0.2450332205         -1.2517
O200       O    0.3591943772    0.4697847424    0.2217449030         -1.3358
O201       O    0.4132158739    0.4227566997    0.2370306533         -1.3313
O202       O    0.5622332139    0.4787536857    0.2603146980         -1.2439
O203       O    0.4556700328    0.4555002797    0.2953282294         -1.3689
O204       O    0.5197900109    0.4460141049    0.2020188430         -1.3567
Cu205     Cu    0.4287776484    0.5020773280    0.2319955139          1.0456
Cu206     Cu    0.4926608986    0.4464650993    0.2500658083          1.0433
C207       C    0.5022351950    0.4681291460    0.1806181274          0.3063
C208       C    0.4192033520    0.4804132813    0.3014431948          0.2977
C209       C    0.5571931072    0.5105260376    0.2561036184          0.2191
C210       C    0.3642454399    0.4380163897    0.2259577038          0.2819
O211       O    0.7828385267    0.6646621856    0.2800252089         -1.3557
O212       O    0.7186997940    0.6741445558    0.1867167424         -1.3655
O213       O    0.8252627060    0.6974108287    0.2217256119         -1.2517
O214       O    0.6762678538    0.6413942126    0.2450137846         -1.3358
O215       O    0.6222331677    0.6884170463    0.2603001609         -1.3313
O216       O    0.7712250144    0.7444311987    0.2370162110         -1.2439
O217       O    0.6646651079    0.7211673895    0.2020031187         -1.3689
O218       O    0.7288038406    0.7116850192    0.2953115853         -1.3567
Cu219     Cu    0.7556990535    0.6651127608    0.2319733590          1.0456
Cu220     Cu    0.6918045811    0.7207168143    0.2500549686          1.0433
C221       C    0.7652784574    0.6867764226    0.3014265048          0.3063
C222       C    0.6822251773    0.6990531524    0.1806018228          0.2977
C223       C    0.8202134048    0.7291770187    0.2259400631          0.2191
C224       C    0.6272902298    0.6566525563    0.2560882645          0.2819
O225       O    0.9788348833    0.9617996352    0.6674249127         -1.3557
O226       O    0.9147225702    0.9712862900    0.7607357406         -1.3655
O227       O    0.0212928544    0.9945359085    0.7257258084         -1.2517
O228       O    0.8722568262    0.9385483276    0.7024373966         -1.3358
O229       O    0.9262672641    0.8915157367    0.7177202095         -1.3313
O230       O    0.0753001081    0.9475010083    0.7410043485         -1.2439
O231       O    0.9687330081    0.9242536990    0.7760185535         -1.3689
O232       O    0.0328453212    0.9147670443    0.6827077257         -1.3567
Cu233     Cu    0.9418488594    0.9708354706    0.7126883227          1.0456
Cu234     Cu    0.0057190319    0.9152178637    0.7307551436          1.0433
C235       C    0.0152949045    0.9368842887    0.6613082661          0.3063
C236       C    0.9322729869    0.9491690456    0.7821352001          0.2977
C237       C    0.0702678171    0.9792739072    0.7367947516          0.2191
C238       C    0.8773000743    0.9067794271    0.7066487147          0.2819
O239       O    0.7055213738    0.7056215226    0.6674399017         -1.3557
O240       O    0.7696559655    0.6961404972    0.7607493102         -1.3655
O241       O    0.6630855946    0.6728815641    0.7257419876         -1.2517
O242       O    0.8120995174    0.7288821454    0.7024497758         -1.3358
O243       O    0.7580777395    0.7759100264    0.7177335336         -1.3313
O244       O    0.6090669994    0.7199117547    0.7410214725         -1.2439
O245       O    0.7156341876    0.7431683783    0.7760330680         -1.3689
O246       O    0.6514995959    0.7526494036    0.6827236595         -1.3567
Cu247     Cu    0.7425195725    0.6965889318    0.7127025158          1.0456
Cu248     Cu    0.6786359889    0.7522009690    0.7307704539          1.0433
C249       C    0.6690523976    0.7305336840    0.6613239369          0.3063
C250       C    0.7521031638    0.7182562168    0.7821490328          0.2977
C251       C    0.6141082198    0.6881392941    0.7368119634          0.2191
C252       C    0.8070473416    0.7606506068    0.7066610063          0.2819
O253       O    0.7056106316    0.9618015943    0.0453135708         -1.3557
O254       O    0.7697332225    0.9712897373    0.9520047801         -1.3655
O255       O    0.6631633607    0.9945418289    0.9870126968         -1.2517
O256       O    0.8121882660    0.9385478135    0.0103031026         -1.3358
O257       O    0.7581717575    0.8915178366    0.9950172030         -1.3313
O258       O    0.6091500358    0.9475095423    0.9717310699         -1.2439
O259       O    0.7157167140    0.9242597603    0.9367188804         -1.3689
O260       O    0.6515941231    0.9147716173    0.0300276712         -1.3567
Cu261     Cu    0.7426023486    0.9708379353    0.0000514612          1.0456
Cu262     Cu    0.6787249969    0.9152234193    0.9819809901          1.0433
C263       C    0.6691460596    0.9368873353    0.0514283737          0.3063
C264       C    0.7521812860    0.9491740193    0.9306040776          0.2977
C265       C    0.6141870021    0.9792820828    0.9759419163          0.2191
C266       C    0.8071403434    0.9067792718    0.0060905349          0.2819
O267       O    0.9788754292    0.7056082449    0.0453015949         -1.3557
O268       O    0.9147336622    0.6961303567    0.9519932659         -1.3655
O269       O    0.0213028459    0.6728675645    0.9869985920         -1.2517
O270       O    0.8722984728    0.7288727271    0.0102937174         -1.3358
O271       O    0.9263261021    0.7758990243    0.9950092532         -1.3313
O272       O    0.0753272932    0.7198961712    0.9717184008         -1.2439
O273       O    0.9687612915    0.7431566538    0.9367088016         -1.3689
O274       O    0.0329030585    0.7526345420    0.0300171307         -1.3567
Cu275     Cu    0.9418731086    0.6965773673    0.0000395851          1.0456
Cu276     Cu    0.0057636121    0.7521875314    0.9819708114          1.0433
C277       C    0.0153483891    0.7305191518    0.0514170473          0.3063
C278       C    0.9322883316    0.7182457470    0.9305933492          0.2977
C279       C    0.0702817389    0.6881238271    0.9759278335          0.2191
C280       C    0.8773549818    0.7606410717    0.0060825630          0.2819
O281       O    0.9016376149    0.5025334106    0.7800421421         -1.3557
O282       O    0.9657802138    0.4930522411    0.6867366463         -1.3655
O283       O    0.8592141602    0.4697869895    0.7217398369         -1.2517
O284       O    0.0082114297    0.5258003622    0.7450363972         -1.3358
O285       O    0.0622424195    0.4787761804    0.7603245324         -1.3313
O286       O    0.9132481555    0.4227652712    0.7370321952         -1.2439
O287       O    0.0198112037    0.4460280594    0.7020247816         -1.3689
O288       O    0.9556686048    0.4555092288    0.7953302774         -1.3567
Cu289     Cu    0.9287793586    0.5020835588    0.7319916171          1.0456
Cu290     Cu    0.9926694600    0.4464779111    0.7500753066          1.0433
C291       C    0.9191952660    0.4804183223    0.8014438794          0.3063
C292       C    0.0022535526    0.4681431476    0.6806230442          0.2977
C293       C    0.8642612569    0.4380206034    0.7259539309          0.2191
C294       C    0.0571875617    0.5105408665    0.7561129927          0.2819
O295       O    0.2827849297    0.6646911073    0.7800463607         -1.3557
O296       O    0.2186386266    0.6741776694    0.6867397925         -1.3655
O297       O    0.3252003601    0.6974458663    0.7217483982         -1.2517
O298       O    0.1762154354    0.6414212101    0.7450352002         -1.3358
O299       O    0.1221747126    0.6884406208    0.7603260667         -1.3313
O300       O    0.2711566326    0.7444628129    0.7370434874         -1.2439
O301       O    0.1645979039    0.7211970801    0.7020306590         -1.3689
O302       O    0.2287442070    0.7117105180    0.7953372272         -1.3567
Cu303     Cu    0.2556422219    0.6651440909    0.7319950503          1.0456
Cu304     Cu    0.1917406117    0.7207440965    0.7500819694          1.0433
C305       C    0.2652229581    0.6868030148    0.8014496218          0.3063
C306       C    0.1821598755    0.6990851726    0.6806273979          0.2977
C307       C    0.3201465779    0.7292115300    0.7259652962          0.2191
C308       C    0.1272362557    0.6566766574    0.7561117235          0.2819
O309       O    0.2828060330    0.5025488876    0.4326976329         -1.3557
O310       O    0.2186749726    0.4930669280    0.5260054052         -1.3655
O311       O    0.3252411288    0.4698065242    0.4909998189         -1.2517
O312       O    0.1762321156    0.5258109911    0.4677057737         -1.3358
O313       O    0.1222072623    0.4787833787    0.4524209432         -1.3313
O314       O    0.2712132692    0.4227813750    0.4757107654         -1.2439
O315       O    0.1646501192    0.4460393156    0.5107205747         -1.3689
O316       O    0.2287811797    0.4555212752    0.4174128024         -1.3567
Cu317     Cu    0.2556694989    0.5020989539    0.4807489946          1.0456
Cu318     Cu    0.1917866533    0.4464892493    0.4626692130          1.0433
C319       C    0.2652497490    0.4804322006    0.4112972123          0.3063
C320       C    0.1822064033    0.4681560026    0.5321209952          0.2977
C321       C    0.3201988306    0.4380397358    0.4867870063          0.2191
C322       C    0.1272573216    0.5105484674    0.4566312013          0.2819
O323       O    0.9657417989    0.6741644166    0.5260022368         -1.3557
O324       O    0.9016115135    0.6646789598    0.4326924441         -1.3655
O325       O    0.0081753357    0.6414180897    0.4677036654         -1.2517
O326       O    0.8591702043    0.6974269766    0.4909884637         -1.3358
O327       O    0.9132016237    0.7444513162    0.4757017678         -1.3313
O328       O    0.0622035726    0.6884447393    0.4524212422         -1.2439
O329       O    0.9556429329    0.7117032994    0.4174057483         -1.3689
O330       O    0.0197732182    0.7211887562    0.5107155409         -1.3567
Cu331     Cu    0.9287448736    0.6651299331    0.4807396988          1.0456
Cu332     Cu    0.9926398582    0.7207377829    0.4626682862          1.0433
C333       C    0.0022149608    0.6990754606    0.5321167892          0.3063
C334       C    0.9191697709    0.6867922554    0.4112911958          0.2977
C335       C    0.0571562348    0.6566728250    0.4566333136          0.2191
C336       C    0.8642284969    0.7291948910    0.4867746714          0.2819
O337       O    0.7055808972    0.4616911989    0.5453105950         -1.3557
O338       O    0.7697042630    0.4711746950    0.4520014825         -1.3655
O339       O    0.6631325872    0.4944272036    0.4870075597         -1.2517
O340       O    0.8121603458    0.4384370010    0.5103019663         -1.3358
O341       O    0.7581467245    0.3914052258    0.4950187132         -1.3313
O342       O    0.6091221496    0.4473931192    0.4717285796         -1.2439
O343       O    0.7156906418    0.4241429198    0.4367182294         -1.3689
O344       O    0.6515672759    0.4146594237    0.5300273418         -1.3567
Cu345     Cu    0.7425727383    0.4707253804    0.5000480829          1.0456
Cu346     Cu    0.6786988007    0.4151087383    0.4819807414          1.0433
C347       C    0.6691176546    0.4367767259    0.5514267685          0.3063
C348       C    0.7521538843    0.4490573928    0.4306020559          0.2977
C349       C    0.6141572515    0.4791659968    0.4759375127          0.2191
C350       C    0.8071142874    0.4066681219    0.5060913116          0.2819
O351       O    0.9788777212    0.2055131791    0.5453028334         -1.3557
O352       O    0.9147425321    0.1960343972    0.4519933160         -1.3655
O353       O    0.0213189993    0.1727804299    0.4869982319         -1.2517
O354       O    0.8722934807    0.2287688358    0.5102953661         -1.3358
O355       O    0.9263045206    0.2758016254    0.4950142902         -1.3313
O356       O    0.0753268561    0.2198155286    0.4717214290         -1.2439
O357       O    0.9687535720    0.2430671868    0.4367122400         -1.3689
O358       O    0.0328887611    0.2525459687    0.5300217575         -1.3567
Cu359     Cu    0.9418802037    0.1964812622    0.5000399201          1.0456
Cu360     Cu    0.0057510894    0.2520991037    0.4819751533          1.0433
C361       C    0.0153414163    0.2304274642    0.5514201552          0.3063
C362       C    0.9322898768    0.2181529018    0.4305949182          0.2977
C363       C    0.0702927149    0.1880424086    0.4759288714          0.2191
C364       C    0.8773385783    0.2605379573    0.5060862021          0.2819
O365       O    0.9788696265    0.4616811283    0.1674400936         -1.3557
O366       O    0.9147575218    0.4711661388    0.2607511292         -1.3655
O367       O    0.0213299682    0.4944144232    0.2257421732         -1.2517
O368       O    0.8722894072    0.4384311549    0.2024516012         -1.3358
O369       O    0.9262958188    0.3913967694    0.2177329169         -1.3313
O370       O    0.0753331954    0.4473777287    0.2410192160         -1.2439
O371       O    0.9687639334    0.4241317533    0.2760324448         -1.3689
O372       O    0.0328760381    0.4146467428    0.1827214093         -1.3567
Cu373     Cu    0.9418840742    0.4707163052    0.2127037441          1.0456
Cu374     Cu    0.0057494857    0.4150965764    0.2307687944          1.0433
C375       C    0.0153276038    0.4367651268    0.1613226678          0.3063
C376       C    0.9323059561    0.4490477547    0.2821498707          0.2977
C377       C    0.0703035860    0.4791508891    0.2368106862          0.2191
C378       C    0.8773299739    0.4066619925    0.2066618523          0.2819
O379       O    0.7055183717    0.2055162740    0.1674414923         -1.3557
O380       O    0.7696432562    0.1960371584    0.2607529823         -1.3655
O381       O    0.6630667238    0.1727860451    0.2257457721         -1.2517
O382       O    0.8121026772    0.2287690765    0.2024512539         -1.3358
O383       O    0.7580970737    0.2758039447    0.2177296832         -1.3313
O384       O    0.6090643041    0.2198232222    0.2410199284         -1.2439
O385       O    0.7156376527    0.2430720267    0.2760314116         -1.3689
O386       O    0.6515127682    0.2525511423    0.1827199216         -1.3567
Cu387     Cu    0.7425102404    0.1964840006    0.2127056334          1.0456
Cu388     Cu    0.6786457839    0.2521043001    0.2307672705          1.0433
C389       C    0.6690589141    0.2304316477    0.1613225562          0.3063
C390       C    0.7520971102    0.2181566530    0.2821503476          0.2977
C391       C    0.6140941886    0.1880498553    0.2368134238          0.2191
C392       C    0.8070618357    0.2605384454    0.2066594801          0.2819
O393       O    0.2829094227    0.0026199646    0.9327283613         -1.3557
O394       O    0.2187910597    0.9931359422    0.0260383930         -1.3655
O395       O    0.3253624791    0.9698850423    0.9910310265         -1.2517
O396       O    0.1763302418    0.0258725635    0.9677382824         -1.3358
O397       O    0.1223214768    0.9788384626    0.9524573311         -1.3313
O398       O    0.2713507066    0.9228534041    0.9757458521         -1.2439
O399       O    0.1647822948    0.9461018414    0.0107574416         -1.3689
O400       O    0.2289006578    0.9555858637    0.9174474099         -1.3567
Cu401     Cu    0.2557777696    0.0021695916    0.9807804988          1.0456
Cu402     Cu    0.1919139479    0.9465522143    0.9627053041          1.0433
C403       C    0.2653593110    0.9805003375    0.9113295471          0.3063
C404       C    0.1823324065    0.9682214684    0.0321562557          0.2977
C405       C    0.3203316472    0.9381175078    0.9868199613          0.2191
C406       C    0.1273600703    0.0106042981    0.9566658415          0.2819
O407       O    0.9015379929    0.1647078883    0.9327222494         -1.3557
O408       O    0.9656533602    0.1741912470    0.0260351556         -1.3655
O409       O    0.8590810739    0.1974406622    0.9910236147         -1.2517
O410       O    0.0081180408    0.1414567742    0.9677363452         -1.3358
O411       O    0.0621236882    0.1884923390    0.9524584190         -1.3313
O412       O    0.9130897292    0.2444737645    0.9757414655         -1.2439
O413       O    0.0196590076    0.2212268118    0.0107572293         -1.3689
O414       O    0.9555436403    0.2117434531    0.9174443231         -1.3567
Cu415     Cu    0.9286684326    0.1651577958    0.9807755481          1.0456
Cu416     Cu    0.9925285679    0.2207769043    0.9627039306          1.0433
C417       C    0.9190869874    0.1868283452    0.9113245240          0.3063
C418       C    0.0021100131    0.1991063549    0.0321549547          0.2977
C419       C    0.8641096502    0.2292083930    0.9868132549          0.2191
C420       C    0.0570873503    0.1567263071    0.9566662239          0.2819
O421       O    0.9015291252    0.0026019499    0.2800212583         -1.3557
O422       O    0.9656610128    0.9931214046    0.1867136157         -1.3655
O423       O    0.8590893168    0.9698643283    0.2217173785         -1.2517
O424       O    0.0081085828    0.0258607256    0.2450149411         -1.3358
O425       O    0.0621238264    0.9788298644    0.2602982715         -1.3313
O426       O    0.9131075670    0.9228359300    0.2370049321         -1.2439
O427       O    0.0196762564    0.9460905434    0.2019969462         -1.3689
O428       O    0.9555443688    0.9555710887    0.2953045888         -1.3567
Cu429     Cu    0.9286669498    0.0021530199    0.2319700983          1.0456
Cu430     Cu    0.9925384318    0.9465394734    0.2500481062          1.0433
C431       C    0.9190804822    0.9804834300    0.3014209097          0.3063
C432       C    0.0021248994    0.9682090633    0.1805972948          0.2977
C433       C    0.8641252991    0.9380971051    0.2259289228          0.2191
C434       C    0.0570800825    0.0105953882    0.2560892817          0.2819
O435       O    0.2828531796    0.1647096725    0.2800254098         -1.3557
O436       O    0.2187213222    0.1741950030    0.1867159072         -1.3655
O437       O    0.3252949700    0.1974485748    0.2217239690         -1.2517
O438       O    0.1762717701    0.1414544015    0.2450147933         -1.3358
O439       O    0.1222600787    0.1884858155    0.2602977662         -1.3313
O440       O    0.2712802718    0.2444775258    0.2370111648         -1.2439
O441       O    0.1647096308    0.2212264170    0.2019988801         -1.3689
O442       O    0.2288414882    0.2117410864    0.2953083827         -1.3567
Cu443     Cu    0.2557150460    0.1651609448    0.2319733524          1.0456
Cu444     Cu    0.1918477645    0.2207751447    0.2500509375          1.0433
C445       C    0.2653035944    0.1868277632    0.3014251567          0.3063
C446       C    0.1822592161    0.1991083262    0.1805991332          0.2977
C447       C    0.3202613435    0.2292157463    0.2259363278          0.2191
C448       C    0.1273014669    0.1567203431    0.2560879621          0.2819
C1079      C    0.0829730943    0.0644717273    0.2903894184          0.3708
C1080      C    0.0737501105    0.0452843523    0.2560889685          0.3708
C1081      C    0.0829677909    0.0644704907    0.2217881720          0.3708
C1082      C    0.1014084552    0.1028440041    0.2217878255          0.3708
C1083      C    0.1106314390    0.1220313790    0.2560882754          0.3708
C1084      C    0.1014137585    0.1028452406    0.2903890718          0.3708
H1085      H    0.0761496165    0.0502690014    0.3157809170          0.3708
H1086      H    0.0761412628    0.0502686712    0.1963980154          0.3708
H1087      H    0.1082319329    0.1170467299    0.1963963268          0.3708
H1088      H    0.1082402866    0.1170470602    0.3157792285          0.3708
C1069      C    0.0178157616    0.1991052802    0.1083409994          0.3708
C1070      C    0.0518004209    0.1991068987    0.0731001915          0.3708
C1071      C    0.1261692740    0.1991089591    0.0711362360          0.3708
C1072      C    0.1665534676    0.1991094010    0.1044130885          0.3708
C1073      C    0.1325688082    0.1991077825    0.1396538964          0.3708
C1074      C    0.0581999552    0.1991057221    0.1416178519          0.3708
H1075      H    0.9627634937    0.1991037549    0.1097948366          0.3708
H1076      H    0.1513269516    0.1991101571    0.0450510531          0.3708
H1077      H    0.2216057354    0.1991109262    0.1029592513          0.3708
H1078      H    0.0330422776    0.1991045240    0.1677030348          0.3708
C1059      C    0.0582521511    0.9682078811    0.0711330557          0.3708
C1060      C    0.1326214420    0.9682180464    0.0731043124          0.3708
C1061      C    0.1665979438    0.9682254312    0.1083480320          0.3708
C1062      C    0.1262051547    0.9682226507    0.1416204948          0.3708
C1063      C    0.0518358638    0.9682124853    0.1396492381          0.3708
C1064      C    0.0178593620    0.9682051005    0.1044055185          0.3708
H1065      H    0.0331007147    0.9682024144    0.0450435490          0.3708
H1066      H    0.2216469039    0.9682329558    0.1098082646          0.3708
H1067      H    0.1513565911    0.9682281173    0.1677100015          0.3708
H1068      H    0.9628104019    0.9681975760    0.1029452859          0.3708
C1049      C    0.1454704671    0.1113515531    0.9566650576          0.3708
C1050      C    0.0737701135    0.1220369016    0.9566661331          0.3708
C1051      C    0.0205233567    0.0943506511    0.9566671082          0.3708
C1052      C    0.0389769535    0.0559790521    0.9566670078          0.3708
C1053      C    0.1106773071    0.0452937035    0.9566659323          0.3708
C1054      C    0.1639240639    0.0729799540    0.9566649572          0.3708
H1055      H    0.1848868974    0.1318465697    0.9566643358          0.3708
H1056      H    0.9674493247    0.1022590319    0.9566679043          0.3708
H1057      H    0.9995605232    0.0354840354    0.9566677296          0.3708
H1058      H    0.2169980958    0.0650715732    0.9566641611          0.3708
C1039      C    0.5094402043    0.2074501635    0.1987881335          0.3708
C1040      C    0.5390209929    0.1985675869    0.2340343663          0.3708
C1041      C    0.4967585547    0.1997502241    0.2666211086          0.3708
C1042      C    0.4249153279    0.2098154380    0.2639616181          0.3708
C1043      C    0.3953345392    0.2186980147    0.2287153852          0.3708
C1044      C    0.4375969774    0.2175153775    0.1961286429          0.3708
H1045      H    0.5407253858    0.2065747048    0.1746654801          0.3708
H1046      H    0.5186528118    0.1931754098    0.2927112762          0.3708
H1047      H    0.3936301463    0.2106908968    0.2880842714          0.3708
H1048      H    0.4157027203    0.2240901918    0.1700384754          0.3708
C1029      C    0.8514199521    0.3527863580    0.1723603545          0.3708
C1030      C    0.8606482601    0.3719721423    0.2066612891          0.3708
C1031      C    0.8514242128    0.3527860032    0.2409616008          0.3708
C1032      C    0.8329718575    0.3144140799    0.2409609779          0.3708
C1033      C    0.8237435495    0.2952282957    0.2066600433          0.3708
C1034      C    0.8329675968    0.3144144348    0.1723597315          0.3708
H1035      H    0.8582481430    0.3669890844    0.1469692146          0.3708
H1036      H    0.8582546817    0.3669866453    0.2663521163          0.3708
H1037      H    0.8261436667    0.3002113536    0.2663521178          0.3708
H1038      H    0.8261371280    0.3002137927    0.1469692161          0.3708
C1019      C    0.8623870394    0.2524549801    0.3730109458          0.3708
C1020      C    0.8825845045    0.2181539365    0.3896471443          0.3708
C1021      C    0.8623909586    0.1838537338    0.3730088314          0.3708
C1022      C    0.8219999477    0.1838545747    0.3397343200          0.3708
C1023      C    0.8018024826    0.2181556182    0.3230981215          0.3708
C1024      C    0.8219960284    0.2524558209    0.3397364344          0.3708
H1025      H    0.8773355083    0.2778460392    0.3853276190          0.3708
H1026      H    0.8773404114    0.1584631378    0.3853223599          0.3708
H1027      H    0.8070514787    0.1584635155    0.3274176468          0.3708
H1028      H    0.8070465756    0.2778464170    0.3274229059          0.3708
C1009      C    0.7678609308    0.4490482807    0.3544108248          0.3708
C1010      C    0.8018480415    0.4490547342    0.3896521730          0.3708
C1011      C    0.8762170310    0.4490590272    0.3916173115          0.3708
C1012      C    0.9165989096    0.4490568668    0.3583411018          0.3708
C1013      C    0.8826117989    0.4490504133    0.3230997535          0.3708
C1014      C    0.8082428095    0.4490461203    0.3211346150          0.3708
H1015      H    0.7128085620    0.4490451028    0.3529561119          0.3708
H1016      H    0.9013765231    0.4490638041    0.4177028944          0.3708
H1017      H    0.9716512784    0.4490600447    0.3597958147          0.3708
H1018      H    0.7830833173    0.4490413434    0.2950490321          0.3708
C999       C    0.8330125143    0.3527885137    0.5403900508          0.3708
C1000      C    0.8237857393    0.3719763938    0.5060900986          0.3708
C1001      C    0.8329996578    0.3527909196    0.4717888046          0.3708
C1002      C    0.8514403514    0.3144175655    0.4717874629          0.3708
C1003      C    0.8606671264    0.2952296855    0.5060874151          0.3708
C1004      C    0.8514532078    0.3144151596    0.5403887091          0.3708
H1005      H    0.8261918214    0.3669907478    0.5657819178          0.3708
H1006      H    0.8261703234    0.3669931131    0.4463990163          0.3708
H1007      H    0.8582610443    0.3002153314    0.4463955959          0.3708
H1008      H    0.8582825423    0.3002129662    0.5657784973          0.3708
C989       C    0.4203203438    0.4809304931    0.5025496086          0.3708
C990       C    0.3953274449    0.4485506066    0.4840141399          0.3708
C991       C    0.4421851422    0.4262229798    0.4628267908          0.3708
C992       C    0.5140357383    0.4362752395    0.4601749104          0.3708
C993       C    0.5390286372    0.4686551259    0.4787103791          0.3708
C994       C    0.4921709399    0.4909827527    0.4998977282          0.3708
H995       H    0.3856334769    0.4974587363    0.5182337501          0.3708
H996       H    0.4236869701    0.4022547964    0.4491062322          0.3708
H997       H    0.5487226051    0.4197469963    0.4444907688          0.3708
H998       H    0.5106691119    0.5149509362    0.5136182868          0.3708
C979       C    0.1638948269    0.5729036858    0.4566277713          0.3708
C980       C    0.1106177851    0.5452332590    0.4566317027          0.3708
C981       C    0.0389297365    0.5559402195    0.4566361889          0.3708
C982       C    0.0205187296    0.5943176067    0.4566367436          0.3708
C983       C    0.0737957713    0.6219880335    0.4566328122          0.3708
C984       C    0.1454838200    0.6112810730    0.4566283260          0.3708
H985       H    0.2169626031    0.5649777540    0.4566244504          0.3708
H986       H    0.9994919908    0.5354590068    0.4566390990          0.3708
H987       H    0.9674509533    0.6022435385    0.4566400645          0.3708
H988       H    0.1849215656    0.6317622857    0.4566254159          0.3708
C969       C    0.1665589145    0.6990813444    0.6044366462          0.3708
C970       C    0.1325265180    0.6990824938    0.6396644169          0.3708
C971       C    0.0581550217    0.6990814660    0.6415998642          0.3708
C972       C    0.0178159218    0.6990792888    0.6083075409          0.3708
C973       C    0.0518483183    0.6990781394    0.5730797703          0.3708
C974       C    0.1262198147    0.6990791672    0.5711443229          0.3708
H975       H    0.2216131391    0.6990821052    0.6030039124          0.3708
H976       H    0.0329620091    0.6990823167    0.6676753961          0.3708
H977       H    0.9627616972    0.6990785280    0.6097402747          0.3708
H978       H    0.1514128272    0.6990783164    0.5450687910          0.3708
C959       C    0.1262615538    0.4681508646    0.6416007033          0.3708
C960       C    0.0518892077    0.4681466933    0.6396623344          0.3708
C961       C    0.0178576318    0.4681454038    0.6044336509          0.3708
C962       C    0.0581984020    0.4681482856    0.5711433362          0.3708
C963       C    0.1325707481    0.4681524569    0.5730817050          0.3708
C964       C    0.1666023240    0.4681537464    0.6083103886          0.3708
H965       H    0.1514537594    0.4681518192    0.6676790794          0.3708
H966       H    0.9628064086    0.4681423162    0.6029977622          0.3708
H967       H    0.0330061965    0.4681473310    0.5450649601          0.3708
H968       H    0.2216535472    0.4681568340    0.6097462772          0.3708
C949       C    0.0205278228    0.5728936927    0.7561125638          0.3708
C950       C    0.0738151035    0.5452292929    0.7561126915          0.3708
C951       C    0.1454991894    0.5559443622    0.7561124858          0.3708
C952       C    0.1638959946    0.5943238312    0.7561121524          0.3708
C953       C    0.1106087139    0.6219882309    0.7561120248          0.3708
C954       C    0.0389246281    0.6112731617    0.7561122304          0.3708
H955       H    0.9674629801    0.5649617583    0.7561127160          0.3708
H956       H    0.1849445137    0.5354676109    0.7561125803          0.3708
H957       H    0.2169608374    0.6022557655    0.7561120002          0.3708
H958       H    0.9994793037    0.6317499129    0.7561121359          0.3708
C939       C    0.5186881475    0.9379924469    0.0011696265          0.3708
C940       C    0.5391030190    0.9687639820    0.9787214027          0.3708
C941       C    0.4876741961    0.9894713304    0.9589327150          0.3708
C942       C    0.4158305019    0.9794071438    0.9615922511          0.3708
C943       C    0.3954156304    0.9486356087    0.9840404750          0.3708
C944       C    0.4468444532    0.9279282603    0.0038291627          0.3708
H945       H    0.5567588345    0.9226636305    0.0158183953          0.3708
H946       H    0.5027835839    0.0122489666    0.9423159932          0.3708
H947       H    0.3777598148    0.9947359601    0.9469434823          0.3708
H948       H    0.4317350655    0.9051506240    0.0204458844          0.3708
C929       C    0.8955061312    0.8613900479    0.0060892680          0.3708
C930       C    0.8238103001    0.8720839787    0.0060886423          0.3708
C931       C    0.7705518315    0.8444041026    0.0060859233          0.3708
C932       C    0.7889891940    0.8060302956    0.0060838300          0.3708
C933       C    0.8606850251    0.7953363648    0.0060844557          0.3708
C934       C    0.9139434937    0.8230162409    0.0060871746          0.3708
H935       H    0.9349312313    0.8818803458    0.0060912807          0.3708
H936       H    0.7174811466    0.8523188362    0.0060854601          0.3708
H937       H    0.7495640939    0.7855399977    0.0060818172          0.3708
H938       H    0.9670141786    0.8151015073    0.0060876378          0.3708
C919       C    0.4930828180    0.6777087772    0.7109160295          0.3708
C920       C    0.5389842419    0.6986355946    0.7340400208          0.3708
C921       C    0.5130288228    0.7296022295    0.7545126211          0.3708
C922       C    0.4411719797    0.7396420469    0.7518612301          0.3708
C923       C    0.3952705558    0.7187152295    0.7287372388          0.3708
C924       C    0.4212259749    0.6877485946    0.7082646385          0.3708
H925       H    0.5122965698    0.6547854241    0.6957609878          0.3708
H926       H    0.5470040722    0.7450931654    0.7716295652          0.3708
H927       H    0.4219582279    0.7625654000    0.7670162718          0.3708
H928       H    0.3872507255    0.6722576587    0.6911476944          0.3708
C909       C    0.7678272296    0.7182533162    0.8583387282          0.3708
C910       C    0.8018058902    0.7182533288    0.8230962836          0.3708
C911       C    0.8761744083    0.7182509945    0.8211287464          0.3708
C912       C    0.9165642658    0.7182486476    0.8544036539          0.3708
C913       C    0.8825856052    0.7182486350    0.8896460985          0.3708
C914       C    0.8082170871    0.7182509693    0.8916136356          0.3708
H915       H    0.7127752097    0.7182550441    0.8597952167          0.3708
H916       H    0.9013276456    0.7182510038    0.7950423519          0.3708
H917       H    0.9716162857    0.7182469197    0.8529471653          0.3708
H918       H    0.7830638498    0.7182509600    0.9177000302          0.3708
C899       C    0.9165968775    0.9491712499    0.8583267110          0.3708
C900       C    0.8825962568    0.9491704175    0.8230890493          0.3708
C901       C    0.8082265157    0.9491707001    0.8211319772          0.3708
C902       C    0.7678573953    0.9491718150    0.8544125668          0.3708
C903       C    0.8018580161    0.9491726473    0.8896502284          0.3708
C904       C    0.8762277571    0.9491723648    0.8916073005          0.3708
H905       H    0.9716498027    0.9491710407    0.8597754526          0.3708
H906       H    0.7830570235    0.9491700840    0.7950491233          0.3708
H907       H    0.7128044701    0.9491720242    0.8529638251          0.3708
H908       H    0.9013972493    0.9491729809    0.9176901544          0.3708
C889       C    0.8513684044    0.8529017062    0.6723526265          0.3708
C890       C    0.8606216411    0.8720875416    0.7066516328          0.3708
C891       C    0.8514269446    0.8529008523    0.7409538668          0.3708
C892       C    0.8329790114    0.8145283276    0.7409570945          0.3708
C893       C    0.8237257747    0.7953424922    0.7066580882          0.3708
C894       C    0.8329204712    0.8145291815    0.6723558542          0.3708
H895       H    0.8581748681    0.8671048398    0.6469600637          0.3708
H896       H    0.8582758666    0.8671015323    0.7663429549          0.3708
H897       H    0.8261725478    0.8003251940    0.7663496573          0.3708
H898       H    0.8260715493    0.8003285015    0.6469667661          0.3708
C879       C    0.7682705292    0.6867961134    0.3609715510          0.3708
C880       C    0.7977350087    0.6867797619    0.3245975916          0.3708
C881       C    0.8716885937    0.6867679875    0.3199848909          0.3708
C882       C    0.9161776991    0.6867725646    0.3517461496          0.3708
C883       C    0.8867132195    0.6867889162    0.3881201090          0.3708
C884       C    0.8127596346    0.6868006906    0.3927328097          0.3708
H885       H    0.7135256676    0.6868048295    0.3643861477          0.3708
H886       H    0.8935004371    0.6867558837    0.2930608694          0.3708
H887       H    0.9709225607    0.6867638485    0.3483315529          0.3708
H888       H    0.7909477911    0.6868127943    0.4196568312          0.3708
C869       C    0.3127758323    0.4804166977    0.3199925455          0.3708
C870       C    0.3867285850    0.4804172721    0.3246156542          0.3708
C871       C    0.4161793031    0.4804233153    0.3609933122          0.3708
C872       C    0.3716772686    0.4804287842    0.3927478616          0.3708
C873       C    0.2977245160    0.4804282098    0.3881247529          0.3708
C874       C    0.2682737978    0.4804221665    0.3517470949          0.3708
H875       H    0.2909746514    0.4804122241    0.2930636299          0.3708
H876       H    0.4709197998    0.4804237407    0.3644164721          0.3708
H877       H    0.3934784496    0.4804332577    0.4196767772          0.3708
H878       H    0.2135333012    0.4804217412    0.3483239350          0.3708
C859       C    0.2447448982    0.4451643041    0.1971048846          0.3708
C860       C    0.2891235133    0.4485290227    0.2287313712          0.3708
C861       C    0.2616531280    0.4619483581    0.2630106816          0.3708
C862       C    0.1898041277    0.4720029747    0.2656635054          0.3708
C863       C    0.1454255126    0.4686382560    0.2340370188          0.3708
C864       C    0.1728958978    0.4552189207    0.1997577084          0.3708
H865       H    0.2650801184    0.4352305104    0.1717292912          0.3708
H866       H    0.2945011519    0.4644393356    0.2864215795          0.3708
H867       H    0.1694689074    0.4819367684    0.2910390988          0.3708
H868       H    0.1400478740    0.4527279432    0.1763468105          0.3708
C849       C    0.5205539450    0.5728811189    0.2561030452          0.3708
C850       C    0.5738318250    0.5452115971    0.2560999739          0.3708
C851       C    0.6455195485    0.5559197752    0.2560928702          0.3708
C852       C    0.6639293920    0.5942974750    0.2560888378          0.3708
C853       C    0.6106515120    0.6219669968    0.2560919090          0.3708
C854       C    0.5389637885    0.6112588187    0.2560990127          0.3708
H855       H    0.4674864094    0.5649542857    0.2561083037          0.3708
H856       H    0.6849579147    0.5354392323    0.2560905967          0.3708
H857       H    0.7169969275    0.6022243081    0.2560835792          0.3708
H858       H    0.4995254223    0.6317393615    0.2561012863          0.3708
C839       C    0.4161502241    0.6868013569    0.8517403008          0.3708
C840       C    0.3867084029    0.6867938304    0.8881194543          0.3708
C841       C    0.3127576937    0.6867896688    0.8927451917          0.3708
C842       C    0.2682488056    0.6867930337    0.8609917757          0.3708
C843       C    0.2976906268    0.6868005602    0.8246126222          0.3708
C844       C    0.3716413360    0.6868047218    0.8199868847          0.3708
H845       H    0.4708929569    0.6868044375    0.8483160536          0.3708
H846       H    0.2909626220    0.6867840976    0.9196730582          0.3708
H847       H    0.2135060728    0.6867899531    0.8644160229          0.3708
H848       H    0.3934364077    0.6868102930    0.7930590182          0.3708
C829       C    0.2377855223    0.7392676616    0.0039938711          0.3708
C830       C    0.2891279263    0.7186991179    0.9839990355          0.3708
C831       C    0.2686127864    0.6880912616    0.9613540429          0.3708
C832       C    0.1967552426    0.6780519489    0.9587038860          0.3708
C833       C    0.1454128386    0.6986204926    0.9786987216          0.3708
C834       C    0.1659279784    0.7292283489    0.0013437141          0.3708
H835       H    0.2529720543    0.7619254254    0.0207570474          0.3708
H836       H    0.3066156021    0.6728655300    0.9465532200          0.3708
H837       H    0.1815687105    0.6553941851    0.9419407097          0.3708
H838       H    0.1279251627    0.7444540805    0.0161445370          0.3708
C819       C    0.5720695733    0.7333618976    0.0897093640          0.3708
C820       C    0.5518895736    0.6990627620    0.0730630964          0.3708
C821       C    0.5720562916    0.6647606516    0.0897065402          0.3708
C822       C    0.6124030093    0.6647576769    0.1229962516          0.3708
C823       C    0.6325830089    0.6990568125    0.1396425192          0.3708
C824       C    0.6124162909    0.7333589228    0.1229990754          0.3708
H825       H    0.5571409638    0.7587543689    0.0773888926          0.3708
H826       H    0.5571197658    0.6393714678    0.0773855588          0.3708
H827       H    0.6273316187    0.6393652056    0.1353167230          0.3708
H828       H    0.6273528167    0.7587481067    0.1353200568          0.3708
C809       C    0.7682457059    0.4804085255    0.8517273619          0.3708
C810       C    0.7976793199    0.4804090814    0.8881094429          0.3708
C811       C    0.8716289847    0.4804130227    0.8927425334          0.3708
C812       C    0.9161450355    0.4804164080    0.8609935429          0.3708
C813       C    0.8867114214    0.4804158520    0.8246114618          0.3708
C814       C    0.8127617567    0.4804119108    0.8199783714          0.3708
H815       H    0.7135037463    0.4804056079    0.8482976715          0.3708
H816       H    0.8934179815    0.4804134343    0.9196725671          0.3708
H817       H    0.9708869951    0.4804193255    0.8644232332          0.3708
H818       H    0.7909727599    0.4804114992    0.7930483377          0.3708
C799       C    0.6665619867    0.4681191303    0.1082911972          0.3708
C800       C    0.6325206063    0.4681259993    0.0730646716          0.3708
C801       C    0.5581486181    0.4681338424    0.0711319445          0.3708
C802       C    0.5178180104    0.4681348165    0.1044257430          0.3708
C803       C    0.5518593909    0.4681279475    0.1396522686          0.3708
C804       C    0.6262313791    0.4681201044    0.1415849957          0.3708
H805       H    0.7216165754    0.4681133244    0.1097219172          0.3708
H806       H    0.5329489556    0.4681389270    0.0450573343          0.3708
H807       H    0.4627634218    0.4681406224    0.1029950230          0.3708
H808       H    0.6514310416    0.4681150198    0.1676596059          0.3708
C789       C    0.6638690783    0.5728787155    0.9566149103          0.3708
C790       C    0.6105805598    0.5452145419    0.9566128724          0.3708
C791       C    0.5388969533    0.5559299153    0.9566120231          0.3708
C792       C    0.5205018653    0.5943094623    0.9566132117          0.3708
C793       C    0.5737903838    0.6219736359    0.9566152496          0.3708
C794       C    0.6454739903    0.6112582625    0.9566160989          0.3708
H795       H    0.7169335662    0.5649465560    0.9566155390          0.3708
H796       H    0.4994507127    0.5354533315    0.9566105146          0.3708
H797       H    0.4674373774    0.6022416219    0.9566125830          0.3708
H798       H    0.6849202309    0.6317348464    0.9566176073          0.3708
C779       C    0.8200057508    0.1525214031    0.8404791751          0.3708
C780       C    0.7977812953    0.1868206090    0.8245870451          0.3708
C781       C    0.8200010453    0.2211226492    0.8404739542          0.3708
C782       C    0.8644452508    0.2211254836    0.8722529934          0.3708
C783       C    0.8866697063    0.1868262778    0.8881451234          0.3708
C784       C    0.8644499563    0.1525242375    0.8722582143          0.3708
H785       H    0.8035573645    0.1271289837    0.8287187359          0.3708
H786       H    0.8035512855    0.2465118851    0.8287111589          0.3708
H787       H    0.8808936372    0.2465179030    0.8840134326          0.3708
H788       H    0.8808997161    0.1271350017    0.8840210096          0.3708
C769       C    0.4161814692    0.9804960823    0.8609541858          0.3708
C770       C    0.3866632749    0.9804922135    0.8245914970          0.3708
C771       C    0.3127028956    0.9804913211    0.8200070648          0.3708
C772       C    0.2682607104    0.9804942975    0.8517853213          0.3708
C773       C    0.2977789046    0.9804981663    0.8881480101          0.3708
C774       C    0.3717392840    0.9804990587    0.8927324423          0.3708
H775       H    0.4709313604    0.9804967429    0.8643478564          0.3708
H776       H    0.2908512925    0.9804884574    0.7930913867          0.3708
H777       H    0.2135108192    0.9804936369    0.8483916507          0.3708
H778       H    0.3935908871    0.9805019223    0.9196481204          0.3708
C759       C    0.2370574630    0.9205427295    0.7326944771          0.3708
C760       C    0.2890292017    0.9486240075    0.7286997833          0.3708
C761       C    0.2691581337    0.9867709322    0.7273635351          0.3708
C762       C    0.1973153270    0.9968365789    0.7300219807          0.3708
C763       C    0.1453435884    0.9687553010    0.7340166745          0.3708
C764       C    0.1652146564    0.9306083763    0.7353529227          0.3708
H765       H    0.2517672147    0.8923040970    0.7336836478          0.3708
H766       H    0.3076268010    0.0075578016    0.7244066346          0.3708
H767       H    0.1826055754    0.0250752115    0.7290328100          0.3708
H768       H    0.1267459890    0.9098215069    0.7383098231          0.3708
C749       C    0.6454673880    0.0559662252    0.7560643283          0.3708
C750       C    0.5737665782    0.0452811418    0.7560705259          0.3708
C751       C    0.5205210082    0.0729675893    0.7560761724          0.3708
C752       C    0.5389762481    0.1113391200    0.7560756214          0.3708
C753       C    0.6106770580    0.1220242034    0.7560694238          0.3708
C754       C    0.6639226280    0.0943377559    0.7560637772          0.3708
H755       H    0.6848829398    0.0354710628    0.7560601484          0.3708
H756       H    0.4674466385    0.0650594048    0.7560807600          0.3708
H757       H    0.4995606964    0.1318342824    0.7560798013          0.3708
H758       H    0.7169969977    0.1022459404    0.7560591896          0.3708
C739       C    0.8716966259    0.9804726733    0.3927337440          0.3708
C740       C    0.7977374440    0.9804741959    0.3881398357          0.3708
C741       C    0.7682359699    0.9804791018    0.3517738148          0.3708
C742       C    0.8126936778    0.9804824849    0.3200017021          0.3708
C743       C    0.8866528597    0.9804809623    0.3245956104          0.3708
C744       C    0.9161543338    0.9804760564    0.3609616314          0.3708
H745       H    0.8935353794    0.9804690417    0.4196540452          0.3708
H746       H    0.7134907127    0.9804802290    0.3483722693          0.3708
H747       H    0.7908549243    0.9804861165    0.2930814009          0.3708
H748       H    0.9708995910    0.9804749292    0.3643631768 0.35800000000000004
C729       C    0.5582054694    0.9681936232    0.5711191975          0.3708
C730       C    0.6325751481    0.9681958517    0.5730863317          0.3708
C731       C    0.6665585565    0.9682014612    0.6083281676          0.3708
C732       C    0.6261722862    0.9682048420    0.6416028692          0.3708
C733       C    0.5518026076    0.9682026135    0.6396357350          0.3708
C734       C    0.5178191992    0.9681970041    0.6043938991          0.3708
H735       H    0.5330489203    0.9681894708    0.5450310852          0.3708
H736       H    0.7216078038    0.9682031109    0.6097853487          0.3708
H737       H    0.6513288353    0.9682089945    0.6676909815          0.3708
H738       H    0.4627699518    0.9681953544    0.6029367180          0.3708
C719       C    0.3644306572    0.2211237861    0.3722567955          0.3708
C720       C    0.3866606216    0.1868221312    0.3881414578          0.3708
C721       C    0.3644272889    0.1525225398    0.3722546377          0.3708
C722       C    0.3199639919    0.1525246033    0.3404831553          0.3708
C723       C    0.2977340275    0.1868262582    0.3245984930          0.3708
C724       C    0.3199673602    0.2211258496    0.3404853131          0.3708
H725       H    0.3808890982    0.2465143927    0.3840171689          0.3708
H726       H    0.3808811259    0.1271314913    0.3840119055          0.3708
H727       H    0.3035055508    0.1271339967    0.3287227820          0.3708
H728       H    0.3035135231    0.2465168981    0.3287280453          0.3708
C709       C    0.2497752305    0.2285899551    0.4518687132          0.3708
C710       C    0.2890605063    0.2186897155    0.4840261536          0.3708
C711       C    0.2565019399    0.1987248303    0.5135244280          0.3708
C712       C    0.1846580978    0.1886601848    0.5108652621          0.3708
C713       C    0.1453728221    0.1985604244    0.4787078216          0.3708
C714       C    0.1779313885    0.2185253096    0.4492095472          0.3708
H715       H    0.2738770264    0.2433691558    0.4300323282          0.3708
H716       H    0.2855797310    0.1913960763    0.5373281847          0.3708
H717       H    0.1605563020    0.1738809840    0.5327016470          0.3708
H718       H    0.1488535974    0.2258540636    0.4254057906          0.3708
C699       C    0.5720423806    0.1647956829    0.5897213644          0.3708
C700       C    0.5518468231    0.1990968100    0.5730846828          0.3708
C701       C    0.5720429601    0.2333969293    0.5897222778          0.3708
C702       C    0.6124346546    0.2333959215    0.6229965545          0.3708
C703       C    0.6326302122    0.1990947945    0.6396332361          0.3708
C704       C    0.6124340752    0.1647946752    0.6229956410          0.3708
H705       H    0.5570919935    0.1394046855    0.5774052226          0.3708
H706       H    0.5570949193    0.2587875871    0.5774083918          0.3708
H707       H    0.6273850417    0.2587869189    0.6353126963          0.3708
H708       H    0.6273821160    0.1394040174    0.6353095271          0.3708
C689       C    0.5205074988    0.0943376542    0.4566494056          0.3708
C690       C    0.5737640941    0.1220192156    0.4566493764          0.3708
C691       C    0.6454600487    0.1113272413    0.4566494788          0.3708
C692       C    0.6638994080    0.0729537058    0.4566496105          0.3708
C693       C    0.6106428127    0.0452721444    0.4566496397          0.3708
C694       C    0.5389468581    0.0559641187    0.4566495373          0.3708
H695       H    0.4674338701    0.1022524923    0.4566493298          0.3708
H696       H    0.6848826602    0.1318166963    0.4566494572          0.3708
H697       H    0.7169730367    0.0650388677    0.4566496863          0.3708
H698       H    0.4995242466    0.0354746637    0.4566495589          0.3708
C679       C    0.6216909789    0.2304164339    0.0700088974          0.3708
C680       C    0.5477311832    0.2304189289    0.0745973750          0.3708
C681       C    0.5182248471    0.2304260840    0.1109612292          0.3708
C682       C    0.5626783068    0.2304307440    0.1427366058          0.3708
C683       C    0.6366381025    0.2304282490    0.1381481282          0.3708
C684       C    0.6661444385    0.2304210939    0.1017842740          0.3708
H685       H    0.6435333316    0.2304111373    0.0430902002          0.3708
H686       H    0.4634791354    0.2304279310    0.1143587548          0.3708
H687       H    0.5408359541    0.2304360406    0.1696553031          0.3708
H688       H    0.7208901502    0.2304192469    0.0983867484          0.3708
C669       C    0.6655329896    0.2365499922    0.9755947323          0.3708
C670       C    0.6453556470    0.1985524270    0.9787148170          0.3708
C671       C    0.6970204765    0.1706227515    0.9844945530          0.3708
C672       C    0.7688626486    0.1806906412    0.9871542043          0.3708
C673       C    0.7890399911    0.2186882065    0.9840341196          0.3708
C674       C    0.7373751616    0.2466178819    0.9782543836          0.3708
H675       H    0.6272875963    0.2572252065    0.9713162264          0.3708
H676       H    0.6820869143    0.1424962049    0.9868042115          0.3708
H677       H    0.8071080419    0.1600154269    0.9914327101          0.3708
H678       H    0.7523087238    0.2747444286    0.9759447251          0.3708
C659       C    0.1144200655    0.4710551371    0.0904742526          0.3708
C660       C    0.1366303605    0.4367521343    0.0745857163          0.3708
C661       C    0.1143983928    0.4024538916    0.0904754057          0.3708
C662       C    0.0699561302    0.4024586518    0.1222536314          0.3708
C663       C    0.0477458352    0.4367616546    0.1381421677          0.3708
C664       C    0.0699778029    0.4710598972    0.1222524783          0.3708
H665       H    0.1308774961    0.4964447453    0.0787117553          0.3708
H666       H    0.1308376706    0.3770618454    0.0787152705          0.3708
H667       H    0.0534986996    0.3770690436    0.1340161287          0.3708
H668       H    0.0535385251    0.4964519434    0.1340126135          0.3708
C649       C    0.9395678870    0.4300886093    0.9580365077          0.3708
C650       C    0.8952589651    0.4485160644    0.9839909370          0.3708
C651       C    0.9228004098    0.4769961540    0.0072931468          0.3708
C652       C    0.9946507764    0.4870487886    0.0046409274          0.3708
C653       C    0.0389596982    0.4686213335    0.9786864980          0.3708
C654       C    0.0114182535    0.4401412439    0.9553842882          0.3708
H655       H    0.9191800642    0.4090059456    0.9407868199          0.3708
H656       H    0.8900039750    0.4906369921    0.0265052606          0.3708
H657       H    0.0150385991    0.5081314523    0.0218906152          0.3708
H658       H    0.0442146883    0.4265004058    0.9361721744          0.3708
C639       C    0.2704805184    0.3442650862    0.0060712326          0.3708
C640       C    0.3237287653    0.3719511911    0.0060738104          0.3708
C641       C    0.3954279431    0.3612653343    0.0060786095          0.3708
C642       C    0.4138788739    0.3228933725    0.0060808308          0.3708
C643       C    0.3606306270    0.2952072676    0.0060782530          0.3708
C644       C    0.2889314492    0.3058931245    0.0060734539          0.3708
H645       H    0.2174045037    0.3521753958    0.0060676800          0.3708
H646       H    0.4348443753    0.3817581526    0.0060805177          0.3708
H647       H    0.4669548886    0.3149830629    0.0060843834          0.3708
H648       H    0.2495150170    0.2854003062    0.0060715457          0.3708
C629       C    0.1661906082    0.2304343300    0.6017693452          0.3708
C630       C    0.1366959308    0.2304155966    0.6381363780          0.3708
C631       C    0.0627385231    0.2304012113    0.6427317043          0.3708
C632       C    0.0182757928    0.2304055595    0.6109599977          0.3708
C633       C    0.0477704702    0.2304242928    0.5745929649          0.3708
C634       C    0.1217278779    0.2304386781    0.5699976387          0.3708
H635       H    0.2209382996    0.2304449788    0.5983676102          0.3708
H636       H    0.0409043271    0.2303873445    0.6696505981          0.3708
H637       H    0.9635281014    0.2303949106    0.6143617327          0.3708
H638       H    0.1435620739    0.2304525449    0.5430787448          0.3708
C619       C    0.9165963685    0.1815052038    0.7209617973          0.3708
C620       C    0.8954069511    0.2186785109    0.7286968190          0.3708
C621       C    0.9460596782    0.2457846043    0.7390920344          0.3708
C622       C    0.0179018227    0.2357173906    0.7417522282          0.3708
C623       C    0.0390912401    0.1985440836    0.7340172065          0.3708
C624       C    0.9884385130    0.1714379901    0.7236219910          0.3708
H625       H    0.8791001938    0.1614396541    0.7132666378          0.3708
H626       H    0.9303769497    0.2733010119    0.7448177989          0.3708
H627       H    0.0553979973    0.2557829403    0.7494473876          0.3708
H628       H    0.0041212414    0.1439215825    0.7178962265          0.3708
C609       C    0.2678551137    0.2181339128    0.8583247886          0.3708
C610       C    0.3018463820    0.2181319387    0.8230857843          0.3708
C611       C    0.3762156032    0.2181306420    0.8211257749          0.3708
C612       C    0.4165935561    0.2181313193    0.8544047699          0.3708
C613       C    0.3826022878    0.2181332934    0.8896437743          0.3708
C614       C    0.3082330666    0.2181345902    0.8916037836          0.3708
H615       H    0.2128025733    0.2181348728    0.8597757046          0.3708
H616       H    0.4013781727    0.2181291807    0.7950419271          0.3708
H617       H    0.4716460965    0.2181303593    0.8529538539          0.3708
H618       H    0.2830704970    0.2181360514    0.9176876314          0.3708
C599       C    0.5700084796    0.4024671407    0.6222557485          0.3708
C600       C    0.5477731901    0.4367657535    0.6381438702          0.3708
C601       C    0.5699965465    0.4710683865    0.6222602507          0.3708
C602       C    0.6144551924    0.4710724066    0.5904885095          0.3708
C603       C    0.6366904819    0.4367737937    0.5746003878          0.3708
C604       C    0.6144671255    0.4024711608    0.5904840073          0.3708
H605       H    0.5535574236    0.3770742825    0.6340137526          0.3708
H606       H    0.5535387675    0.4964571834    0.6340200792          0.3708
H607       H    0.6309062484    0.4964652648    0.5787305055          0.3708
H608       H    0.6309249045    0.3770823638    0.5787241788          0.3708
C589       C    0.6646532729    0.4334645472    0.7189688571          0.3708
C590       C    0.6454298824    0.4686379230    0.7340351731          0.3708
C591       C    0.6980563619    0.4937585793    0.7464481392          0.3708
C592       C    0.7699062318    0.4837058598    0.7437947893          0.3708
C593       C    0.7891296223    0.4485324840    0.7287284734          0.3708
C594       C    0.7365031428    0.4234118276    0.7163155073          0.3708
H595       H    0.6256960089    0.4148687366    0.7097800381          0.3708
H596       H    0.6838289421    0.5197945821    0.7576005656          0.3708
H597       H    0.8088634958    0.5023016703    0.7529836084          0.3708
H598       H    0.7507305627    0.3973758249    0.7051630809          0.3708
C579       C    0.3082160597    0.4490332703    0.8211161176          0.3708
C580       C    0.3825852822    0.4490337773    0.8230881301          0.3708
C581       C    0.4165605205    0.4490314219    0.8583321950          0.3708
C582       C    0.3761665364    0.4490285595    0.8916042473          0.3708
C583       C    0.3017973140    0.4490280524    0.8896322348          0.3708
C584       C    0.2678220756    0.4490304079    0.8543881699          0.3708
H585       H    0.2830655586    0.4490350139    0.7950263553          0.3708
H586       H    0.4716094299    0.4490317971    0.8597929870          0.3708
H587       H    0.4013170375    0.4490268158    0.9176940096          0.3708
H588       H    0.2127731663    0.4490300326    0.8529273779          0.3708
C569       C    0.3514567594    0.3527711726    0.7409490162          0.3708
C570       C    0.3606750917    0.3719583424    0.7066483093          0.3708
C571       C    0.3514536356    0.3527718798    0.6723477698          0.3708
C572       C    0.3330138472    0.3143982473    0.6723479372          0.3708
C573       C    0.3237955148    0.2952110775    0.7066486441          0.3708
C574       C    0.3330169710    0.3143975401    0.7409491836          0.3708
H575       H    0.3582830321    0.3669741384    0.7663403246          0.3708
H576       H    0.3582767206    0.3669735475    0.6469574230          0.3708
H577       H    0.3261875745    0.3001952815    0.6469566288          0.3708
H578       H    0.3261938859    0.3001958724    0.7663395305          0.3708
C559       C    0.0699972066    0.7648137523    0.0904803351          0.3708
C560       C    0.0477687794    0.7305155792    0.0745873525          0.3708
C561       C    0.0699985304    0.6962125071    0.0904678786          0.3708
C562       C    0.1144567086    0.6962076080    0.1222413873          0.3708
C563       C    0.1366851358    0.7305057811    0.1381343699          0.3708
C564       C    0.1144553848    0.7648088532    0.1222538438          0.3708
H565       H    0.0535414169    0.7902069355    0.0787246209          0.3708
H566       H    0.0535458311    0.6708240357    0.0787044520          0.3708
H567       H    0.1309124983    0.6708144248    0.1339971015          0.3708
H568       H    0.1309080841    0.7901973246    0.1340172704          0.3708
C549       C    0.9865321546    0.6739420485    0.2474541476          0.3708
C550       C    0.0390434957    0.6985997541    0.2340174870          0.3708
C551       C    0.0196984731    0.7332979940    0.2179284750          0.3708
C552       C    0.9478421093    0.7433385284    0.2152761235          0.3708
C553       C    0.8953307682    0.7186808229    0.2287127841          0.3708
C554       C    0.9146757908    0.6839825829    0.2448017962          0.3708
H555       H    0.0008524961    0.6482563385    0.2593641956          0.3708
H556       H    0.0585665689    0.7515506381    0.2079821973          0.3708
H557       H    0.9335217678    0.7690242384    0.2033660756          0.3708
H558       H    0.8758076950    0.6657299388    0.2547480738          0.3708
C539       C    0.6217143509    0.9368726327    0.1427383448          0.3708
C540       C    0.5477573356    0.9368667887    0.1381345784          0.3708
C541       C    0.5182729936    0.9368684723    0.1017646265          0.3708
C542       C    0.5627456669    0.9368759998    0.0699984411          0.3708
C543       C    0.6367026822    0.9368818439    0.0746022075          0.3708
C544       C    0.6661870242    0.9368801603    0.1109721594          0.3708
H545       H    0.6435404223    0.9368713865    0.1696615560          0.3708
H546       H    0.4635293406    0.9368641466    0.0983557840          0.3708
H547       H    0.5409195956    0.9368772461    0.0430752299          0.3708
H548       H    0.7209306772    0.9368844860    0.1143810020          0.3708
C529       C    0.6684114792    0.9337100956    0.2478619648          0.3708
C530       C    0.6453501201    0.9687348439    0.2340222696          0.3708
C531       C    0.6941337861    0.9936982630    0.2175247468          0.3708
C532       C    0.7659788111    0.9836369338    0.2148669193          0.3708
C533       C    0.7890401702    0.9486121854    0.2287066144          0.3708
C534       C    0.7402565042    0.9236487663    0.2452041372          0.3708
H535       H    0.6322988953    0.9152306814    0.2600744167          0.3708
H536       H    0.6770653939    0.0196242473    0.2072801316          0.3708
H537       H    0.8020913950    0.0021163479    0.2026544673          0.3708
H538       H    0.7573248964    0.8977227820    0.2554487525          0.3708
C519       C    0.2705100565    0.8229912029    0.2066391494          0.3708
C520       C    0.3237663356    0.7953099178    0.2066435778          0.3708
C521       C    0.3954624121    0.8060022639    0.2066467400          0.3708
C522       C    0.4139022096    0.8443758951    0.2066454737          0.3708
C523       C    0.3606459306    0.8720571802    0.2066410453          0.3708
C524       C    0.2889498540    0.8613648341    0.2066378832          0.3708
H525       H    0.2174363375    0.8150760895    0.2066368085          0.3708
H526       H    0.4348847896    0.7855130135    0.2066500179          0.3708
H527       H    0.4669759286    0.8522910085    0.2066478146          0.3708
H528       H    0.2495274766    0.8818540845    0.2066346052          0.3708
C509       C    0.5182280078    0.7305246279    0.6109576244          0.3708
C510       C    0.5477388021    0.7305212210    0.5745942868          0.3708
C511       C    0.6216982484    0.7305223805    0.5700082286          0.3708
C512       C    0.6661469003    0.7305269469    0.6017855081          0.3708
C513       C    0.6366361059    0.7305303538    0.6381488457          0.3708
C514       C    0.5626766597    0.7305291943    0.6427349038          0.3708
H515       H    0.4634788073    0.7305237696    0.6143524986          0.3708
H516       H    0.6435443741    0.7305198588    0.5430920703          0.3708
H517       H    0.7208961007    0.7305278052    0.5983906339          0.3708
H518       H    0.5408305339    0.7305317160    0.6696510622          0.3708
C499       C    0.6867614689    0.7016293131    0.4459105036          0.3708
C500       C    0.6453952027    0.6986177619    0.4787048567          0.3708
C501       C    0.6758859671    0.7056466468    0.5141490485          0.3708
C502       C    0.7477429976    0.7156870829    0.5167988871          0.3708
C503       C    0.7891092638    0.7186986340    0.4840045340          0.3708
C504       C    0.7586184994    0.7116697491    0.4485603422          0.3708
H505       H    0.6641903835    0.6964261126    0.4196725954          0.3708
H506       H    0.6452677688    0.7034177298    0.5384244338          0.3708
H507       H    0.7703140830    0.7208902834    0.5430367954          0.3708
H508       H    0.7892366977    0.7138986662    0.4242849569          0.3708
C489       C    0.3082257640    0.7182242976    0.3915995908          0.3708
C490       C    0.3825959287    0.7182300484    0.3896403198          0.3708
C491       C    0.4165880727    0.7182330220    0.3544020772          0.3708
C492       C    0.3762100520    0.7182302448    0.3211231055          0.3708
C493       C    0.3018398873    0.7182244940    0.3230823766          0.3708
C494       C    0.2678477433    0.7182215204    0.3583206192          0.3708
H495       H    0.2830627484    0.7182220964    0.4176850432          0.3708
H496       H    0.4716376801    0.7182372788    0.3529507165          0.3708
H497       H    0.4013730676    0.7182324460    0.2950376532          0.3708
H498       H    0.2127981359    0.7182172636    0.3597719798          0.3708
C479       C    0.1144459434    0.9711712741    0.5904792412          0.3708
C480       C    0.1366502648    0.9368675960    0.5745898004          0.3708
C481       C    0.1143938220    0.9025700336    0.5904712617          0.3708
C482       C    0.0699330577    0.9025761493    0.6222421637          0.3708
C483       C    0.0477287363    0.9368798273    0.6381316044          0.3708
C484       C    0.0699851791    0.9711773897    0.6222501432          0.3708
H485       H    0.1309214920    0.9965603787    0.5787228348          0.3708
H486       H    0.1308286774    0.8771774876    0.5787104567          0.3708
H487       H    0.0534575091    0.8771870446    0.6339985701          0.3708
H488       H    0.0535503237    0.9965699357    0.6340109482          0.3708
C469       C    0.0003812116    0.9602030932    0.4459412928          0.3708
C470       C    0.0390384567    0.9687290955    0.4787021730          0.3708
C471       C    0.0058521572    0.9671909079    0.5141237212          0.3708
C472       C    0.9340086127    0.9571267179    0.5167843891          0.3708
C473       C    0.8953513677    0.9486007156    0.4840235089          0.3708
C474       C    0.9285376671    0.9501389032    0.4486019607          0.3708
H475       H    0.0249476930    0.9613417515    0.4197201467          0.3708
H476       H    0.0344650623    0.9735017758    0.5383743293          0.3708
H477       H    0.9094421313    0.9559880596    0.5430055352          0.3708
H478       H    0.8999247620    0.9438280353    0.4243513525          0.3708
C459       C    0.4165603627    0.9491357326    0.3583237798          0.3708
C460       C    0.3825723897    0.9491362374    0.3230826662          0.3708
C461       C    0.3082033520    0.9491369367    0.3211180419          0.3708
C462       C    0.2678222871    0.9491371310    0.3543945312          0.3708
C463       C    0.3018102601    0.9491366261    0.3896356448          0.3708
C464       C    0.3761792978    0.9491359269    0.3916002691          0.3708
H465       H    0.4716127672    0.9491352150    0.3597781120          0.3708
H466       H    0.2830432216    0.9491373104    0.2950326327          0.3708
H467       H    0.2127698826    0.9491376486    0.3529401989          0.3708
H468       H    0.4013394282    0.9491355532    0.4176856783          0.3708
C449       C    0.2705071839    0.8443790209    0.5060752210          0.3708
C450       C    0.3237576710    0.8720639067    0.5060780421          0.3708
C451       C    0.3954559842    0.8613764084    0.5060804758          0.3708
C452       C    0.4139038103    0.8230040242    0.5060800885          0.3708
C453       C    0.3606533232    0.7953191384    0.5060772674          0.3708
C454       C    0.2889550100    0.8060066368    0.5060748336          0.3708
H455       H    0.2174318091    0.8522905457    0.5060734194          0.3708
H456       H    0.4348740746    0.8818683242    0.5060825640          0.3708
H457       H    0.4669791851    0.8150924995    0.5060818901          0.3708
H458       H    0.2495369196    0.7855147209    0.5060727454          0.3708
loop_
_geom_bond_atom_site_label_1
_geom_bond_atom_site_label_2
_geom_bond_distance
_geom_bond_site_symmetry_2
_ccdc_geom_bond_type
O1          Cu9 1.951       .   S
O1          C11 1.250       .   A
O2          Cu9 1.951       .   S
O2          C12 1.250       .   A
O3          Cu9 1.951       .   S
O3          C13 1.250       .   A
O4          Cu9 1.951       .   S
O4          C14 1.250       .   A
O5         Cu10 1.951       .   S
O5          C14 1.250       .   A
O6         Cu10 1.951       .   S
O6          C13 1.251       .   A
O7         Cu10 1.951       .   S
O7          C12 1.250       .   A
O8         Cu10 1.951       .   S
O8          C11 1.250       .   A
Cu9        Cu10 2.630       .   S
C11        C463 1.895       .   S
C12        C480 1.123       .   S
C13        C450 1.392       .   S
C14        C470 1.609       .   S
O15        Cu23 1.951       .   S
O15         C25 1.250       .   A
O16        Cu23 1.951       .   S
O16         C26 1.250       .   A
O17        Cu23 1.951       .   S
O17         C27 1.250       .   A
O18        Cu23 1.951       .   S
O18         C28 1.250       .   A
O19        Cu24 1.951       .   S
O19         C28 1.250       .   A
O20        Cu24 1.951       .   S
O20         C27 1.251       .   A
O21        Cu24 1.951       .   S
O21         C26 1.250       .   A
O22        Cu24 1.951       .   S
O22         C25 1.250       .   A
Cu23       Cu24 2.630       .   S
C25        C490 1.895       .   S
C26        C510 1.123       .   S
C27        C453 1.392       .   S
C28        C500 1.610       .   S
O29        Cu37 1.951       .   S
O29         C39 1.250       .   A
O30        Cu37 1.951       .   S
O30         C40 1.250       .   A
O31        Cu37 1.951       .   S
O31         C41 1.250       .   A
O32        Cu37 1.951       .   S
O32         C42 1.250       .   A
O33        Cu38 1.951       .   S
O33         C42 1.250       .   A
O34        Cu38 1.951       .   S
O34         C41 1.251       .   A
O35        Cu38 1.951       .   S
O35         C40 1.250       .   A
O36        Cu38 1.951       .   S
O36         C39 1.250       .   A
Cu37       Cu38 2.630       .   S
C39        C460 1.895       .   S
C40        C540 1.123       .   S
C41        C523 1.392       .   S
C42        C530 1.609       .   S
O43        Cu51 1.951       .   S
O43         C53 1.250       .   A
O44        Cu51 1.951       .   S
O44         C54 1.250       .   A
O45        Cu51 1.951       .   S
O45         C55 1.250       .   A
O46        Cu51 1.951       .   S
O46         C56 1.250       .   A
O47        Cu52 1.951       .   S
O47         C56 1.250       .   A
O48        Cu52 1.951       .   S
O48         C55 1.251       .   A
O49        Cu52 1.951       .   S
O49         C54 1.250       .   A
O50        Cu52 1.951       .   S
O50         C53 1.250       .   A
Cu51       Cu52 2.630       .   S
C53        C493 1.895       .   S
C54        C563 1.123       .   S
C55        C520 1.392       .   S
C56        C550 1.610       .   S
O57        Cu65 1.951       .   S
O57         C67 1.250       .   A
O58        Cu65 1.951       .   S
O58         C68 1.250       .   A
O59        Cu65 1.951       .   S
O59         C69 1.250       .   A
O60        Cu65 1.951       .   S
O60         C70 1.250       .   A
O61        Cu66 1.951       .   S
O61         C70 1.250       .   A
O62        Cu66 1.951       .   S
O62         C69 1.251       .   A
O63        Cu66 1.951       .   S
O63         C68 1.250       .   A
O64        Cu66 1.951       .   S
O64         C67 1.250       .   A
Cu65       Cu66 2.630       .   S
C67        C580 1.895       .   S
C68        C600 1.123       .   S
C69        C570 1.392       .   S
C70        C590 1.610       .   S
O71        Cu79 1.951       .   S
O71         C81 1.250       .   A
O72        Cu79 1.951       .   S
O72         C82 1.250       .   A
O73        Cu79 1.951       .   S
O73         C83 1.250       .   A
O74        Cu79 1.951       .   S
O74         C84 1.250       .   A
O75        Cu80 1.951       .   S
O75         C84 1.250       .   A
O76        Cu80 1.951       .   S
O76         C83 1.251       .   A
O77        Cu80 1.951       .   S
O77         C82 1.250       .   A
O78        Cu80 1.951       .   S
O78         C81 1.250       .   A
Cu79       Cu80 2.630       .   S
C81        C610 1.895       .   S
C82        C630 1.123       .   S
C83        C573 1.392       .   S
C84        C623 1.609       .   S
O85        Cu93 1.951       .   S
O85         C95 1.250       .   A
O86        Cu93 1.951       .   S
O86         C96 1.250       .   A
O87        Cu93 1.951       .   S
O87         C97 1.250       .   A
O88        Cu93 1.951       .   S
O88         C98 1.250       .   A
O89        Cu94 1.951       .   S
O89         C98 1.250       .   A
O90        Cu94 1.951       .   S
O90         C97 1.251       .   A
O91        Cu94 1.951       .   S
O91         C96 1.250       .   A
O92        Cu94 1.951       .   S
O92         C95 1.250       .   A
Cu93       Cu94 2.630       .   S
C95        C583 1.895       .   S
C96        C660 1.123       .   S
C97        C640 1.392       .   S
C98        C653 1.610       .   S
O99       Cu107 1.951       .   S
O99        C109 1.250       .   A
O100      Cu107 1.951       .   S
O100       C110 1.250       .   A
O101      Cu107 1.951       .   S
O101       C111 1.250       .   A
O102      Cu107 1.951       .   S
O102       C112 1.250       .   A
O103      Cu108 1.951       .   S
O103       C112 1.250       .   A
O104      Cu108 1.951       .   S
O104       C111 1.251       .   A
O105      Cu108 1.951       .   S
O105       C110 1.250       .   A
O106      Cu108 1.951       .   S
O106       C109 1.250       .   A
Cu107     Cu108 2.630       .   S
C109       C613 1.895       .   S
C110       C680 1.123       .   S
C111       C643 1.392       .   S
C112       C670 1.609       .   S
O113      Cu121 1.951       .   S
O113       C123 1.250       .   A
O114      Cu121 1.951       .   S
O114       C124 1.250       .   A
O115      Cu121 1.951       .   S
O115       C125 1.250       .   A
O116      Cu121 1.951       .   S
O116       C126 1.250       .   A
O117      Cu122 1.951       .   S
O117       C126 1.250       .   A
O118      Cu122 1.951       .   S
O118       C125 1.251       .   A
O119      Cu122 1.951       .   S
O119       C124 1.250       .   A
O120      Cu122 1.951       .   S
O120       C123 1.250       .   A
Cu121     Cu122 2.630       .   S
C123       C700 1.895       .   S
C124       C720 1.123       .   S
C125       C690 1.392       .   S
C126       C710 1.609       .   S
O127      Cu135 1.951       .   S
O127       C137 1.250       .   A
O128      Cu135 1.951       .   S
O128       C138 1.250       .   A
O129      Cu135 1.951       .   S
O129       C139 1.250       .   A
O130      Cu135 1.951       .   S
O130       C140 1.250       .   A
O131      Cu136 1.951       .   S
O131       C140 1.250       .   A
O132      Cu136 1.951       .   S
O132       C139 1.251       .   A
O133      Cu136 1.951       .   S
O133       C138 1.250       .   A
O134      Cu136 1.951       .   S
O134       C137 1.250       .   A
Cu135     Cu136 2.630       .   S
C137       C740 1.123       .   S
C138       C730 1.895       .   S
C139       C473 1.609   1_655   S
C140       C693 1.392   1_565   S
O141      Cu149 1.951       .   S
O141       C151 1.250       .   A
O142      Cu149 1.951       .   S
O142       C152 1.250       .   A
O143      Cu149 1.951       .   S
O143       C153 1.250       .   A
O144      Cu149 1.951       .   S
O144       C154 1.250       .   A
O145      Cu150 1.951       .   S
O145       C154 1.250       .   A
O146      Cu150 1.951       .   S
O146       C153 1.251       .   A
O147      Cu150 1.951       .   S
O147       C152 1.250       .   A
O148      Cu150 1.951       .   S
O148       C151 1.250       .   A
Cu149     Cu150 2.630       .   S
C151       C733 1.895       .   S
C152       C770 1.123       .   S
C153       C750 1.392       .   S
C154       C760 1.609       .   S
O155      Cu163 1.951       .   S
O155       C165 1.250       .   A
O156      Cu163 1.951       .   S
O156       C166 1.250       .   A
O157      Cu163 1.951       .   S
O157       C167 1.250       .   A
O158      Cu163 1.951       .   S
O158       C168 1.250       .   A
O159      Cu164 1.951       .   S
O159       C168 1.250       .   A
O160      Cu164 1.951       .   S
O160       C167 1.251       .   A
O161      Cu164 1.951       .   S
O161       C166 1.250       .   A
O162      Cu164 1.951       .   S
O162       C165 1.250       .   A
Cu163     Cu164 2.630       .   S
C165       C780 1.123       .   S
C166       C703 1.895       .   S
C167       C620 1.609   1_655   S
C168       C753 1.392   1_545   S
O169      Cu177 1.951       .   S
O169       C179 1.250       .   A
O170      Cu177 1.951       .   S
O170       C180 1.250       .   A
O171      Cu177 1.951       .   S
O171       C181 1.250       .   A
O172      Cu177 1.951       .   S
O172       C182 1.250       .   A
O173      Cu178 1.951       .   S
O173       C182 1.250       .   A
O174      Cu178 1.951       .   S
O174       C181 1.251       .   A
O175      Cu178 1.951       .   S
O175       C180 1.250       .   A
O176      Cu178 1.951       .   S
O176       C179 1.250       .   A
Cu177     Cu178 2.630       .   S
C179       C810 1.124       .   S
C180       C800 1.895       .   S
C181       C650 1.610   1_655   S
C182       C790 1.392       .   S
O183      Cu191 1.951       .   S
O183       C193 1.250       .   A
O184      Cu191 1.951       .   S
O184       C194 1.250       .   A
O185      Cu191 1.951       .   S
O185       C195 1.250       .   A
O186      Cu191 1.951       .   S
O186       C196 1.250       .   A
O187      Cu192 1.951       .   S
O187       C196 1.250       .   A
O188      Cu192 1.951       .   S
O188       C195 1.251       .   A
O189      Cu192 1.951       .   S
O189       C194 1.250       .   A
O190      Cu192 1.951       .   S
O190       C193 1.250       .   A
Cu191     Cu192 2.630       .   S
C193       C820 1.895       .   S
C194       C840 1.123       .   S
C195       C793 1.392       .   S
C196       C830 1.610       .   S
O197      Cu205 1.951       .   S
O197       C207 1.250       .   A
O198      Cu205 1.951       .   S
O198       C208 1.250       .   A
O199      Cu205 1.951       .   S
O199       C209 1.250       .   A
O200      Cu205 1.951       .   S
O200       C210 1.250       .   A
O201      Cu206 1.951       .   S
O201       C210 1.250       .   A
O202      Cu206 1.951       .   S
O202       C209 1.251       .   A
O203      Cu206 1.951       .   S
O203       C208 1.250       .   A
O204      Cu206 1.951       .   S
O204       C207 1.250       .   A
Cu205     Cu206 2.630       .   S
C207       C803 1.895   1_554   S
C208       C870 1.124       .   S
C209       C850 1.392       .   S
C210       C860 1.610       .   S
O211      Cu219 1.951       .   S
O211       C221 1.250       .   A
O212      Cu219 1.951       .   S
O212       C222 1.250       .   A
O213      Cu219 1.951       .   S
O213       C223 1.250       .   A
O214      Cu219 1.951       .   S
O214       C224 1.250       .   A
O215      Cu220 1.951       .   S
O215       C224 1.250       .   A
O216      Cu220 1.951       .   S
O216       C223 1.251       .   A
O217      Cu220 1.951       .   S
O217       C222 1.250       .   A
O218      Cu220 1.951       .   S
O218       C221 1.250       .   A
Cu219     Cu220 2.630       .   S
C221       C880 1.124       .   S
C222       C823 1.895   1_554   S
C223       C553 1.610   1_655   S
C224       C853 1.392       .   S
O225      Cu233 1.951       .   S
O225       C235 1.250       .   A
O226      Cu233 1.951       .   S
O226       C236 1.250       .   A
O227      Cu233 1.951       .   S
O227       C237 1.250       .   A
O228      Cu233 1.951       .   S
O228       C238 1.250       .   A
O229      Cu234 1.951       .   S
O229       C238 1.250       .   A
O230      Cu234 1.951       .   S
O230       C237 1.251       .   A
O231      Cu234 1.951       .   S
O231       C236 1.250       .   A
O232      Cu234 1.951       .   S
O232       C235 1.250       .   A
Cu233     Cu234 2.630       .   S
C235       C483 1.123   1_655   S
C236       C900 1.895       .   S
C237       C763 1.609   1_655   S
C238       C890 1.392       .   S
O239      Cu247 1.951       .   S
O239       C249 1.250       .   A
O240      Cu247 1.951       .   S
O240       C250 1.250       .   A
O241      Cu247 1.951       .   S
O241       C251 1.250       .   A
O242      Cu247 1.951       .   S
O242       C252 1.250       .   A
O243      Cu248 1.951       .   S
O243       C252 1.250       .   A
O244      Cu248 1.951       .   S
O244       C251 1.251       .   A
O245      Cu248 1.951       .   S
O245       C250 1.250       .   A
O246      Cu248 1.951       .   S
O246       C249 1.250       .   A
Cu247     Cu248 2.630       .   S
C249       C513 1.123       .   S
C250       C910 1.895       .   S
C251       C920 1.610       .   S
C252       C893 1.392       .   S
O253      Cu261 1.951       .   S
O253       C263 1.250       .   A
O254      Cu261 1.951       .   S
O254       C264 1.250       .   A
O255      Cu261 1.951       .   S
O255       C265 1.250       .   A
O256      Cu261 1.951       .   S
O256       C266 1.250       .   A
O257      Cu262 1.951       .   S
O257       C266 1.250       .   A
O258      Cu262 1.951       .   S
O258       C265 1.251       .   A
O259      Cu262 1.951       .   S
O259       C264 1.250       .   A
O260      Cu262 1.951       .   S
O260       C263 1.250       .   A
Cu261     Cu262 2.630       .   S
C263       C543 1.123   1_556   S
C264       C903 1.895       .   S
C265       C940 1.609       .   S
C266       C930 1.392       .   S
O267      Cu275 1.951       .   S
O267       C277 1.250       .   A
O268      Cu275 1.951       .   S
O268       C278 1.250       .   A
O269      Cu275 1.951       .   S
O269       C279 1.250       .   A
O270      Cu275 1.951       .   S
O270       C280 1.250       .   A
O271      Cu276 1.951       .   S
O271       C280 1.250       .   A
O272      Cu276 1.951       .   S
O272       C279 1.251       .   A
O273      Cu276 1.951       .   S
O273       C278 1.250       .   A
O274      Cu276 1.951       .   S
O274       C277 1.250       .   A
Cu275     Cu276 2.630       .   S
C277       C560 1.123   1_656   S
C278       C913 1.895       .   S
C279       C833 1.610   1_655   S
C280       C933 1.392       .   S
O281      Cu289 1.951       .   S
O281       C291 1.250       .   A
O282      Cu289 1.951       .   S
O282       C292 1.250       .   A
O283      Cu289 1.951       .   S
O283       C293 1.250       .   A
O284      Cu289 1.951       .   S
O284       C294 1.250       .   A
O285      Cu290 1.951       .   S
O285       C294 1.250       .   A
O286      Cu290 1.951       .   S
O286       C293 1.251       .   A
O287      Cu290 1.951       .   S
O287       C292 1.250       .   A
O288      Cu290 1.951       .   S
O288       C291 1.250       .   A
Cu289     Cu290 2.630       .   S
C291       C813 1.124       .   S
C292       C960 1.895       .   S
C293       C593 1.610       .   S
C294       C950 1.392       .   S
O295      Cu303 1.951       .   S
O295       C305 1.250       .   A
O296      Cu303 1.951       .   S
O296       C306 1.250       .   A
O297      Cu303 1.951       .   S
O297       C307 1.250       .   A
O298      Cu303 1.951       .   S
O298       C308 1.250       .   A
O299      Cu304 1.951       .   S
O299       C308 1.250       .   A
O300      Cu304 1.951       .   S
O300       C307 1.251       .   A
O301      Cu304 1.951       .   S
O301       C306 1.250       .   A
O302      Cu304 1.951       .   S
O302       C305 1.250       .   A
Cu303     Cu304 2.630       .   S
C305       C843 1.123       .   S
C306       C970 1.895       .   S
C307       C923 1.610       .   S
C308       C953 1.392   1_455   S
O309      Cu317 1.951       .   S
O309       C319 1.250       .   A
O310      Cu317 1.951       .   S
O310       C320 1.250       .   A
O311      Cu317 1.951       .   S
O311       C321 1.250       .   A
O312      Cu317 1.951       .   S
O312       C322 1.250       .   A
O313      Cu318 1.951       .   S
O313       C322 1.250       .   A
O314      Cu318 1.951       .   S
O314       C321 1.251       .   A
O315      Cu318 1.951       .   S
O315       C320 1.250       .   A
O316      Cu318 1.951       .   S
O316       C319 1.250       .   A
Cu317     Cu318 2.630       .   S
C319       C873 1.124       .   S
C320       C963 1.895   1_455   S
C321       C990 1.610       .   S
C322       C980 1.392       .   S
O323      Cu331 1.951       .   S
O323       C333 1.250       .   A
O324      Cu331 1.951       .   S
O324       C334 1.250       .   A
O325      Cu331 1.951       .   S
O325       C335 1.250       .   A
O326      Cu331 1.951       .   S
O326       C336 1.250       .   A
O327      Cu332 1.951       .   S
O327       C336 1.250       .   A
O328      Cu332 1.951       .   S
O328       C335 1.251       .   A
O329      Cu332 1.951       .   S
O329       C334 1.250       .   A
O330      Cu332 1.951       .   S
O330       C333 1.250       .   A
Cu331     Cu332 2.630       .   S
C333       C973 1.895   1_655   S
C334       C883 1.124       .   S
C335       C983 1.392   1_655   S
C336       C503 1.610       .   S
O337      Cu345 1.951       .   S
O337       C347 1.250       .   A
O338      Cu345 1.951       .   S
O338       C348 1.250       .   A
O339      Cu345 1.951       .   S
O339       C349 1.250       .   A
O340      Cu345 1.951       .   S
O340       C350 1.250       .   A
O341      Cu346 1.951       .   S
O341       C350 1.250       .   A
O342      Cu346 1.951       .   S
O342       C349 1.251       .   A
O343      Cu346 1.951       .   S
O343       C348 1.250       .   A
O344      Cu346 1.951       .   S
O344       C347 1.250       .   A
Cu345     Cu346 2.630       .   S
C347       C603 1.123       .   S
C348      C1010 1.895       .   S
C349       C993 1.610       .   S
C350      C1000 1.392       .   S
O351      Cu359 1.951       .   S
O351       C361 1.250       .   A
O352      Cu359 1.951       .   S
O352       C362 1.250       .   A
O353      Cu359 1.951       .   S
O353       C363 1.250       .   A
O354      Cu359 1.951       .   S
O354       C364 1.250       .   A
O355      Cu360 1.951       .   S
O355       C364 1.250       .   A
O356      Cu360 1.951       .   S
O356       C363 1.251       .   A
O357      Cu360 1.951       .   S
O357       C362 1.250       .   A
O358      Cu360 1.951       .   S
O358       C361 1.250       .   A
Cu359     Cu360 2.630       .   S
C361       C633 1.123   1_655   S
C362      C1020 1.895       .   S
C363       C713 1.609   1_655   S
C364      C1003 1.392       .   S
O365      Cu373 1.951       .   S
O365       C375 1.250       .   A
O366      Cu373 1.951       .   S
O366       C376 1.250       .   A
O367      Cu373 1.951       .   S
O367       C377 1.250       .   A
O368      Cu373 1.951       .   S
O368       C378 1.250       .   A
O369      Cu374 1.951       .   S
O369       C378 1.250       .   A
O370      Cu374 1.951       .   S
O370       C377 1.251       .   A
O371      Cu374 1.951       .   S
O371       C376 1.250       .   A
O372      Cu374 1.951       .   S
O372       C375 1.250       .   A
Cu373     Cu374 2.630       .   S
C375       C663 1.123   1_654   S
C376      C1013 1.895       .   S
C377       C863 1.610   1_655   S
C378      C1030 1.392       .   S
O379      Cu387 1.951       .   S
O379       C389 1.250       .   A
O380      Cu387 1.951       .   S
O380       C390 1.250       .   A
O381      Cu387 1.951       .   S
O381       C391 1.250       .   A
O382      Cu387 1.951       .   S
O382       C392 1.250       .   A
O383      Cu388 1.951       .   S
O383       C392 1.250       .   A
O384      Cu388 1.951       .   S
O384       C391 1.251       .   A
O385      Cu388 1.951       .   S
O385       C390 1.250       .   A
O386      Cu388 1.951       .   S
O386       C389 1.250       .   A
Cu387     Cu388 2.630       .   S
C389       C683 1.123   1_554   S
C390      C1023 1.895       .   S
C391      C1040 1.609       .   S
C392      C1033 1.392       .   S
O393      Cu401 1.951       .   S
O393       C403 1.250       .   A
O394      Cu401 1.951       .   S
O394       C404 1.250       .   A
O395      Cu401 1.951       .   S
O395       C405 1.250       .   A
O396      Cu401 1.951       .   S
O396       C406 1.250       .   A
O397      Cu402 1.951       .   S
O397       C406 1.250       .   A
O398      Cu402 1.951       .   S
O398       C405 1.251       .   A
O399      Cu402 1.951       .   S
O399       C404 1.250       .   A
O400      Cu402 1.951       .   S
O400       C403 1.250       .   A
Cu401     Cu402 2.630       .   S
C403       C773 1.123       .   S
C404      C1060 1.895       .   S
C405       C943 1.609       .   S
C406      C1053 1.392       .   S
O407      Cu415 1.951       .   S
O407       C417 1.250       .   A
O408      Cu415 1.951       .   S
O408       C418 1.250       .   A
O409      Cu415 1.951       .   S
O409       C419 1.250       .   A
O410      Cu415 1.951       .   S
O410       C420 1.250       .   A
O411      Cu416 1.951       .   S
O411       C420 1.250       .   A
O412      Cu416 1.951       .   S
O412       C419 1.251       .   A
O413      Cu416 1.951       .   S
O413       C418 1.250       .   A
O414      Cu416 1.951       .   S
O414       C417 1.250       .   A
Cu415     Cu416 2.630       .   S
C417       C783 1.123       .   S
C418      C1070 1.895       .   S
C419       C673 1.609       .   S
C420      C1050 1.392   1_645   S
O421      Cu429 1.951       .   S
O421       C431 1.250       .   A
O422      Cu429 1.951       .   S
O422       C432 1.250       .   A
O423      Cu429 1.951       .   S
O423       C433 1.250       .   A
O424      Cu429 1.951       .   S
O424       C434 1.250       .   A
O425      Cu430 1.951       .   S
O425       C434 1.250       .   A
O426      Cu430 1.951       .   S
O426       C433 1.251       .   A
O427      Cu430 1.951       .   S
O427       C432 1.250       .   A
O428      Cu430 1.951       .   S
O428       C431 1.250       .   A
Cu429     Cu430 2.630       .   S
C431       C743 1.123       .   S
C432      C1063 1.895   1_654   S
C433       C533 1.609       .   S
C434      C1080 1.392       .   S
O435      Cu443 1.951       .   S
O435       C445 1.250       .   A
O436      Cu443 1.951       .   S
O436       C446 1.250       .   A
O437      Cu443 1.951       .   S
O437       C447 1.250       .   A
O438      Cu443 1.951       .   S
O438       C448 1.250       .   A
O439      Cu444 1.951       .   S
O439       C448 1.250       .   A
O440      Cu444 1.951       .   S
O440       C447 1.251       .   A
O441      Cu444 1.951       .   S
O441       C446 1.250       .   A
O442      Cu444 1.951       .   S
O442       C445 1.250       .   A
Cu443     Cu444 2.630       .   S
C445       C723 1.123       .   S
C446      C1073 1.895   1_454   S
C447      C1043 1.609       .   S
C448      C1083 1.392   1_445   S
C1079     C1080 1.540       .   A
C1079     C1084 1.540       .   A
C1079     H1085 1.140       .   S
C1080     C1081 1.540       .   A
C1081     C1082 1.540       .   A
C1081     H1086 1.140       .   S
C1082     C1083 1.540       .   A
C1082     H1087 1.140       .   S
C1083     C1084 1.540       .   A
C1084     H1088 1.140       .   S
C1069     C1070 1.540       .   A
C1069     C1074 1.540       .   A
C1069     H1075 1.140       .   S
C1070     C1071 1.540       .   A
C1071     C1072 1.540       .   A
C1071     H1076 1.140       .   S
C1072     C1073 1.540       .   A
C1072     H1077 1.140       .   S
C1073     C1074 1.540       .   A
C1074     H1078 1.140       .   S
C1059     C1060 1.540       .   A
C1059     C1064 1.540       .   A
C1059     H1065 1.140       .   S
C1060     C1061 1.540       .   A
C1061     C1062 1.540       .   A
C1061     H1066 1.140       .   S
C1062     C1063 1.540       .   A
C1062     H1067 1.140       .   S
C1063     C1064 1.540       .   A
C1064     H1068 1.140       .   S
C1049     C1050 1.540       .   A
C1049     C1054 1.540       .   A
C1049     H1055 1.140       .   S
C1050     C1051 1.540       .   A
C1051     C1052 1.540       .   A
C1051     H1056 1.140       .   S
C1052     C1053 1.540       .   A
C1052     H1057 1.140       .   S
C1053     C1054 1.540       .   A
C1054     H1058 1.140       .   S
C1039     C1040 1.540       .   A
C1039     C1044 1.540       .   A
C1039     H1045 1.140       .   S
C1040     C1041 1.540       .   A
C1041     C1042 1.540       .   A
C1041     H1046 1.140       .   S
C1042     C1043 1.540       .   A
C1042     H1047 1.140       .   S
C1043     C1044 1.540       .   A
C1044     H1048 1.140       .   S
C1029     C1030 1.540       .   A
C1029     C1034 1.540       .   A
C1029     H1035 1.140       .   S
C1030     C1031 1.540       .   A
C1031     C1032 1.540       .   A
C1031     H1036 1.140       .   S
C1032     C1033 1.540       .   A
C1032     H1037 1.140       .   S
C1033     C1034 1.540       .   A
C1034     H1038 1.140       .   S
C1019     C1020 1.540       .   A
C1019     C1024 1.540       .   A
C1019     H1025 1.140       .   S
C1020     C1021 1.540       .   A
C1021     C1022 1.540       .   A
C1021     H1026 1.140       .   S
C1022     C1023 1.540       .   A
C1022     H1027 1.140       .   S
C1023     C1024 1.540       .   A
C1024     H1028 1.140       .   S
C1009     C1010 1.540       .   A
C1009     C1014 1.540       .   A
C1009     H1015 1.140       .   S
C1010     C1011 1.540       .   A
C1011     C1012 1.540       .   A
C1011     H1016 1.140       .   S
C1012     C1013 1.540       .   A
C1012     H1017 1.140       .   S
C1013     C1014 1.540       .   A
C1014     H1018 1.140       .   S
C999      C1000 1.540       .   A
C999      C1004 1.540       .   A
C999      H1005 1.140       .   S
C1000     C1001 1.540       .   A
C1001     C1002 1.540       .   A
C1001     H1006 1.140       .   S
C1002     C1003 1.540       .   A
C1002     H1007 1.140       .   S
C1003     C1004 1.540       .   A
C1004     H1008 1.140       .   S
C989       C990 1.540       .   A
C989       C994 1.540       .   A
C989       H995 1.140       .   S
C990       C991 1.540       .   A
C991       C992 1.540       .   A
C991       H996 1.140       .   S
C992       C993 1.540       .   A
C992       H997 1.140       .   S
C993       C994 1.540       .   A
C994       H998 1.140       .   S
C979       C980 1.540       .   A
C979       C984 1.540       .   A
C979       H985 1.140       .   S
C980       C981 1.540       .   A
C981       C982 1.540       .   A
C981       H986 1.140       .   S
C982       C983 1.540       .   A
C982       H987 1.140       .   S
C983       C984 1.540       .   A
C984       H988 1.140       .   S
C969       C970 1.540       .   A
C969       C974 1.540       .   A
C969       H975 1.140       .   S
C970       C971 1.540       .   A
C971       C972 1.540       .   A
C971       H976 1.140       .   S
C972       C973 1.540       .   A
C972       H977 1.140       .   S
C973       C974 1.540       .   A
C974       H978 1.140       .   S
C959       C960 1.540       .   A
C959       C964 1.540       .   A
C959       H965 1.140       .   S
C960       C961 1.540       .   A
C961       C962 1.540       .   A
C961       H966 1.140       .   S
C962       C963 1.540       .   A
C962       H967 1.140       .   S
C963       C964 1.540       .   A
C964       H968 1.140       .   S
C949       C950 1.540       .   A
C949       C954 1.540       .   A
C949       H955 1.140       .   S
C950       C951 1.540       .   A
C951       C952 1.540       .   A
C951       H956 1.140       .   S
C952       C953 1.540       .   A
C952       H957 1.140       .   S
C953       C954 1.540       .   A
C954       H958 1.140       .   S
C939       C940 1.540       .   A
C939       C944 1.540       .   A
C939       H945 1.140       .   S
C940       C941 1.540       .   A
C941       C942 1.540       .   A
C941       H946 1.140       .   S
C942       C943 1.540       .   A
C942       H947 1.140       .   S
C943       C944 1.540       .   A
C944       H948 1.140       .   S
C929       C930 1.540       .   A
C929       C934 1.540       .   A
C929       H935 1.140       .   S
C930       C931 1.540       .   A
C931       C932 1.540       .   A
C931       H936 1.140       .   S
C932       C933 1.540       .   A
C932       H937 1.140       .   S
C933       C934 1.540       .   A
C934       H938 1.140       .   S
C919       C920 1.540       .   A
C919       C924 1.540       .   A
C919       H925 1.140       .   S
C920       C921 1.540       .   A
C921       C922 1.540       .   A
C921       H926 1.140       .   S
C922       C923 1.540       .   A
C922       H927 1.140       .   S
C923       C924 1.540       .   A
C924       H928 1.140       .   S
C909       C910 1.540       .   A
C909       C914 1.540       .   A
C909       H915 1.140       .   S
C910       C911 1.540       .   A
C911       C912 1.540       .   A
C911       H916 1.140       .   S
C912       C913 1.540       .   A
C912       H917 1.140       .   S
C913       C914 1.540       .   A
C914       H918 1.140       .   S
C899       C900 1.540       .   A
C899       C904 1.540       .   A
C899       H905 1.140       .   S
C900       C901 1.540       .   A
C901       C902 1.540       .   A
C901       H906 1.140       .   S
C902       C903 1.540       .   A
C902       H907 1.140       .   S
C903       C904 1.540       .   A
C904       H908 1.140       .   S
C889       C890 1.540       .   A
C889       C894 1.540       .   A
C889       H895 1.140       .   S
C890       C891 1.540       .   A
C891       C892 1.540       .   A
C891       H896 1.140       .   S
C892       C893 1.540       .   A
C892       H897 1.140       .   S
C893       C894 1.540       .   A
C894       H898 1.140       .   S
C879       C880 1.540       .   A
C879       C884 1.540       .   A
C879       H885 1.140       .   S
C880       C881 1.540       .   A
C881       C882 1.540       .   A
C881       H886 1.140       .   S
C882       C883 1.540       .   A
C882       H887 1.140       .   S
C883       C884 1.540       .   A
C884       H888 1.140       .   S
C869       C870 1.540       .   A
C869       C874 1.540       .   A
C869       H875 1.140       .   S
C870       C871 1.540       .   A
C871       C872 1.540       .   A
C871       H876 1.140       .   S
C872       C873 1.540       .   A
C872       H877 1.140       .   S
C873       C874 1.540       .   A
C874       H878 1.140       .   S
C859       C860 1.540       .   A
C859       C864 1.540       .   A
C859       H865 1.140       .   S
C860       C861 1.540       .   A
C861       C862 1.540       .   A
C861       H866 1.140       .   S
C862       C863 1.540       .   A
C862       H867 1.140       .   S
C863       C864 1.540       .   A
C864       H868 1.140       .   S
C849       C850 1.540       .   A
C849       C854 1.540       .   A
C849       H855 1.140       .   S
C850       C851 1.540       .   A
C851       C852 1.540       .   A
C851       H856 1.140       .   S
C852       C853 1.540       .   A
C852       H857 1.140       .   S
C853       C854 1.540       .   A
C854       H858 1.140       .   S
C839       C840 1.540       .   A
C839       C844 1.540       .   A
C839       H845 1.140       .   S
C840       C841 1.540       .   A
C841       C842 1.540       .   A
C841       H846 1.140       .   S
C842       C843 1.540       .   A
C842       H847 1.140       .   S
C843       C844 1.540       .   A
C844       H848 1.140       .   S
C829       C830 1.540       .   A
C829       C834 1.540       .   A
C829       H835 1.140       .   S
C830       C831 1.540       .   A
C831       C832 1.540       .   A
C831       H836 1.140       .   S
C832       C833 1.540       .   A
C832       H837 1.140       .   S
C833       C834 1.540       .   A
C834       H838 1.140       .   S
C819       C820 1.540       .   A
C819       C824 1.540       .   A
C819       H825 1.140       .   S
C820       C821 1.540       .   A
C821       C822 1.540       .   A
C821       H826 1.140       .   S
C822       C823 1.540       .   A
C822       H827 1.140       .   S
C823       C824 1.540       .   A
C824       H828 1.140       .   S
C809       C810 1.540       .   A
C809       C814 1.540       .   A
C809       H815 1.140       .   S
C810       C811 1.540       .   A
C811       C812 1.540       .   A
C811       H816 1.140       .   S
C812       C813 1.540       .   A
C812       H817 1.140       .   S
C813       C814 1.540       .   A
C814       H818 1.140       .   S
C799       C800 1.540       .   A
C799       C804 1.540       .   A
C799       H805 1.140       .   S
C800       C801 1.540       .   A
C801       C802 1.540       .   A
C801       H806 1.140       .   S
C802       C803 1.540       .   A
C802       H807 1.140       .   S
C803       C804 1.540       .   A
C804       H808 1.140       .   S
C789       C790 1.540       .   A
C789       C794 1.540       .   A
C789       H795 1.140       .   S
C790       C791 1.540       .   A
C791       C792 1.540       .   A
C791       H796 1.140       .   S
C792       C793 1.540       .   A
C792       H797 1.140       .   S
C793       C794 1.540       .   A
C794       H798 1.140       .   S
C779       C780 1.540       .   A
C779       C784 1.540       .   A
C779       H785 1.140       .   S
C780       C781 1.540       .   A
C781       C782 1.540       .   A
C781       H786 1.140       .   S
C782       C783 1.540       .   A
C782       H787 1.140       .   S
C783       C784 1.540       .   A
C784       H788 1.140       .   S
C769       C770 1.540       .   A
C769       C774 1.540       .   A
C769       H775 1.140       .   S
C770       C771 1.540       .   A
C771       C772 1.540       .   A
C771       H776 1.140       .   S
C772       C773 1.540       .   A
C772       H777 1.140       .   S
C773       C774 1.540       .   A
C774       H778 1.140       .   S
C759       C760 1.540       .   A
C759       C764 1.540       .   A
C759       H765 1.140       .   S
C760       C761 1.540       .   A
C761       C762 1.540       .   A
C761       H766 1.140       .   S
C762       C763 1.540       .   A
C762       H767 1.140       .   S
C763       C764 1.540       .   A
C764       H768 1.140       .   S
C749       C750 1.540       .   A
C749       C754 1.540       .   A
C749       H755 1.140       .   S
C750       C751 1.540       .   A
C751       C752 1.540       .   A
C751       H756 1.140       .   S
C752       C753 1.540       .   A
C752       H757 1.140       .   S
C753       C754 1.540       .   A
C754       H758 1.140       .   S
C739       C740 1.540       .   A
C739       C744 1.540       .   A
C739       H745 1.140       .   S
C740       C741 1.540       .   A
C741       C742 1.540       .   A
C741       H746 1.140       .   S
C742       C743 1.540       .   A
C742       H747 1.140       .   S
C743       C744 1.540       .   A
C744       H748 1.140       .   S
C729       C730 1.540       .   A
C729       C734 1.540       .   A
C729       H735 1.140       .   S
C730       C731 1.540       .   A
C731       C732 1.540       .   A
C731       H736 1.140       .   S
C732       C733 1.540       .   A
C732       H737 1.140       .   S
C733       C734 1.540       .   A
C734       H738 1.140       .   S
C719       C720 1.540       .   A
C719       C724 1.540       .   A
C719       H725 1.140       .   S
C720       C721 1.540       .   A
C721       C722 1.540       .   A
C721       H726 1.140       .   S
C722       C723 1.540       .   A
C722       H727 1.140       .   S
C723       C724 1.540       .   A
C724       H728 1.140       .   S
C709       C710 1.540       .   A
C709       C714 1.540       .   A
C709       H715 1.140       .   S
C710       C711 1.540       .   A
C711       C712 1.540       .   A
C711       H716 1.140       .   S
C712       C713 1.540       .   A
C712       H717 1.140       .   S
C713       C714 1.540       .   A
C714       H718 1.140       .   S
C699       C700 1.540       .   A
C699       C704 1.540       .   A
C699       H705 1.140       .   S
C700       C701 1.540       .   A
C701       C702 1.540       .   A
C701       H706 1.140       .   S
C702       C703 1.540       .   A
C702       H707 1.140       .   S
C703       C704 1.540       .   A
C704       H708 1.140       .   S
C689       C690 1.540       .   A
C689       C694 1.540       .   A
C689       H695 1.140       .   S
C690       C691 1.540       .   A
C691       C692 1.540       .   A
C691       H696 1.140       .   S
C692       C693 1.540       .   A
C692       H697 1.140       .   S
C693       C694 1.540       .   A
C694       H698 1.140       .   S
C679       C680 1.540       .   A
C679       C684 1.540       .   A
C679       H685 1.140       .   S
C680       C681 1.540       .   A
C681       C682 1.540       .   A
C681       H686 1.140       .   S
C682       C683 1.540       .   A
C682       H687 1.140       .   S
C683       C684 1.540       .   A
C684       H688 1.140       .   S
C669       C670 1.540       .   A
C669       C674 1.540       .   A
C669       H675 1.140       .   S
C670       C671 1.540       .   A
C671       C672 1.540       .   A
C671       H676 1.140       .   S
C672       C673 1.540       .   A
C672       H677 1.140       .   S
C673       C674 1.540       .   A
C674       H678 1.140       .   S
C659       C660 1.540       .   A
C659       C664 1.540       .   A
C659       H665 1.140       .   S
C660       C661 1.540       .   A
C661       C662 1.540       .   A
C661       H666 1.140       .   S
C662       C663 1.540       .   A
C662       H667 1.140       .   S
C663       C664 1.540       .   A
C664       H668 1.140       .   S
C649       C650 1.540       .   A
C649       C654 1.540       .   A
C649       H655 1.140       .   S
C650       C651 1.540       .   A
C651       C652 1.540       .   A
C651       H656 1.140       .   S
C652       C653 1.540       .   A
C652       H657 1.140       .   S
C653       C654 1.540       .   A
C654       H658 1.140       .   S
C639       C640 1.540       .   A
C639       C644 1.540       .   A
C639       H645 1.140       .   S
C640       C641 1.540       .   A
C641       C642 1.540       .   A
C641       H646 1.140       .   S
C642       C643 1.540       .   A
C642       H647 1.140       .   S
C643       C644 1.540       .   A
C644       H648 1.140       .   S
C629       C630 1.540       .   A
C629       C634 1.540       .   A
C629       H635 1.140       .   S
C630       C631 1.540       .   A
C631       C632 1.540       .   A
C631       H636 1.140       .   S
C632       C633 1.540       .   A
C632       H637 1.140       .   S
C633       C634 1.540       .   A
C634       H638 1.140       .   S
C619       C620 1.540       .   A
C619       C624 1.540       .   A
C619       H625 1.140       .   S
C620       C621 1.540       .   A
C621       C622 1.540       .   A
C621       H626 1.140       .   S
C622       C623 1.540       .   A
C622       H627 1.140       .   S
C623       C624 1.540       .   A
C624       H628 1.140       .   S
C609       C610 1.540       .   A
C609       C614 1.540       .   A
C609       H615 1.140       .   S
C610       C611 1.540       .   A
C611       C612 1.540       .   A
C611       H616 1.140       .   S
C612       C613 1.540       .   A
C612       H617 1.140       .   S
C613       C614 1.540       .   A
C614       H618 1.140       .   S
C599       C600 1.540       .   A
C599       C604 1.540       .   A
C599       H605 1.140       .   S
C600       C601 1.540       .   A
C601       C602 1.540       .   A
C601       H606 1.140       .   S
C602       C603 1.540       .   A
C602       H607 1.140       .   S
C603       C604 1.540       .   A
C604       H608 1.140       .   S
C589       C590 1.540       .   A
C589       C594 1.540       .   A
C589       H595 1.140       .   S
C590       C591 1.540       .   A
C591       C592 1.540       .   A
C591       H596 1.140       .   S
C592       C593 1.540       .   A
C592       H597 1.140       .   S
C593       C594 1.540       .   A
C594       H598 1.140       .   S
C579       C580 1.540       .   A
C579       C584 1.540       .   A
C579       H585 1.140       .   S
C580       C581 1.540       .   A
C581       C582 1.540       .   A
C581       H586 1.140       .   S
C582       C583 1.540       .   A
C582       H587 1.140       .   S
C583       C584 1.540       .   A
C584       H588 1.140       .   S
C569       C570 1.540       .   A
C569       C574 1.540       .   A
C569       H575 1.140       .   S
C570       C571 1.540       .   A
C571       C572 1.540       .   A
C571       H576 1.140       .   S
C572       C573 1.540       .   A
C572       H577 1.140       .   S
C573       C574 1.540       .   A
C574       H578 1.140       .   S
C559       C560 1.540       .   A
C559       C564 1.540       .   A
C559       H565 1.140       .   S
C560       C561 1.540       .   A
C561       C562 1.540       .   A
C561       H566 1.140       .   S
C562       C563 1.540       .   A
C562       H567 1.140       .   S
C563       C564 1.540       .   A
C564       H568 1.140       .   S
C549       C550 1.540       .   A
C549       C554 1.540       .   A
C549       H555 1.140       .   S
C550       C551 1.540       .   A
C551       C552 1.540       .   A
C551       H556 1.140       .   S
C552       C553 1.540       .   A
C552       H557 1.140       .   S
C553       C554 1.540       .   A
C554       H558 1.140       .   S
C539       C540 1.540       .   A
C539       C544 1.540       .   A
C539       H545 1.140       .   S
C540       C541 1.540       .   A
C541       C542 1.540       .   A
C541       H546 1.140       .   S
C542       C543 1.540       .   A
C542       H547 1.140       .   S
C543       C544 1.540       .   A
C544       H548 1.140       .   S
C529       C530 1.540       .   A
C529       C534 1.540       .   A
C529       H535 1.140       .   S
C530       C531 1.540       .   A
C531       C532 1.540       .   A
C531       H536 1.140       .   S
C532       C533 1.540       .   A
C532       H537 1.140       .   S
C533       C534 1.540       .   A
C534       H538 1.140       .   S
C519       C520 1.540       .   A
C519       C524 1.540       .   A
C519       H525 1.140       .   S
C520       C521 1.540       .   A
C521       C522 1.540       .   A
C521       H526 1.140       .   S
C522       C523 1.540       .   A
C522       H527 1.140       .   S
C523       C524 1.540       .   A
C524       H528 1.140       .   S
C509       C510 1.540       .   A
C509       C514 1.540       .   A
C509       H515 1.140       .   S
C510       C511 1.540       .   A
C511       C512 1.540       .   A
C511       H516 1.140       .   S
C512       C513 1.540       .   A
C512       H517 1.140       .   S
C513       C514 1.540       .   A
C514       H518 1.140       .   S
C499       C500 1.540       .   A
C499       C504 1.540       .   A
C499       H505 1.140       .   S
C500       C501 1.540       .   A
C501       C502 1.540       .   A
C501       H506 1.140       .   S
C502       C503 1.540       .   A
C502       H507 1.140       .   S
C503       C504 1.540       .   A
C504       H508 1.140       .   S
C489       C490 1.540       .   A
C489       C494 1.540       .   A
C489       H495 1.140       .   S
C490       C491 1.540       .   A
C491       C492 1.540       .   A
C491       H496 1.140       .   S
C492       C493 1.540       .   A
C492       H497 1.140       .   S
C493       C494 1.540       .   A
C494       H498 1.140       .   S
C479       C480 1.540       .   A
C479       C484 1.540       .   A
C479       H485 1.140       .   S
C480       C481 1.540       .   A
C481       C482 1.540       .   A
C481       H486 1.140       .   S
C482       C483 1.540       .   A
C482       H487 1.140       .   S
C483       C484 1.540       .   A
C484       H488 1.140       .   S
C469       C470 1.540       .   A
C469       C474 1.540       .   A
C469       H475 1.140       .   S
C470       C471 1.540       .   A
C471       C472 1.540       .   A
C471       H476 1.140       .   S
C472       C473 1.540       .   A
C472       H477 1.140       .   S
C473       C474 1.540       .   A
C474       H478 1.140       .   S
C459       C460 1.540       .   A
C459       C464 1.540       .   A
C459       H465 1.140       .   S
C460       C461 1.540       .   A
C461       C462 1.540       .   A
C461       H466 1.140       .   S
C462       C463 1.540       .   A
C462       H467 1.140       .   S
C463       C464 1.540       .   A
C464       H468 1.140       .   S
C449       C450 1.540       .   A
C449       C454 1.540       .   A
C449       H455 1.140       .   S
C450       C451 1.540       .   A
C451       C452 1.540       .   A
C451       H456 1.140       .   S
C452       C453 1.540       .   A
C452       H457 1.140       .   S
C453       C454 1.540       .   A
C454       H458 1.140       .   S
